@<TRIPOS>MOLECULE
*****
 21 23 0 0 0
SMALL
GASTEIGER

@<TRIPOS>ATOM
      1 C          63.9149   90.6249   12.7666 C.ar    1  UNL1        0.0537
      2 C          64.4026   91.7694   11.9287 C.ar    1  UNL1        0.1019
      3 N          65.6070   92.5535   12.3582 N.ar    1  UNL1       -0.2422
      4 C          66.3237   92.1931   13.6257 C.ar    1  UNL1        0.0989
      5 C          65.8360   91.0486   14.4636 C.ar    1  UNL1        0.0208
      6 C          64.6316   90.2645   14.0341 C.ar    1  UNL1        0.0061
      7 C          64.1438   89.1199   14.8720 C.ar    1  UNL1        0.0033
      8 C          63.3359   89.3858   16.1076 C.ar    1  UNL1        0.0207
      9 C          62.8481   88.2413   16.9455 C.ar    1  UNL1        0.0989
     10 N          63.1683   86.8308   16.5479 N.ar    1  UNL1       -0.2423
     11 C          63.9762   86.5649   15.3123 C.ar    1  UNL1        0.0989
     12 C          64.4640   87.7095   14.4744 C.ar    1  UNL1        0.0207
     13 C          60.4208   89.0709   12.1019 C.ar    1  UNL1        0.1385
     14 C          61.2933   88.1971   11.2503 C.ar    1  UNL1        0.0375
     15 C          62.7084   88.6729   11.3957 C.ar    1  UNL1        0.0404
     16 C          62.7104   89.8407   12.3371 C.ar    1  UNL1        0.1464
     17 O          61.2966   90.0867   12.7736 O.2     1  UNL1       -0.4563
     18 N          58.3443   88.5704   13.5811 N.3     1  UNL1       -0.3148
     19 C          58.9335   88.9501   12.2550 C.3     1  UNL1        0.1307
     20 H          57.3278   88.5354   13.5041 H       1  UNL1        0.1192
     21 H          58.6086   89.2632   14.2815 H       1  UNL1        0.1192
@<TRIPOS>BOND
     1    18    19    1
     2    19    13    1
     3    13    14   ar
     4    14    15   ar
     5    15    16   ar
     6    16     1    1
     7     1     2   ar
     8     2     3   ar
     9     3     4   ar
    10     4     5   ar
    11     5     6   ar
    12     6     7    1
    13     7     8   ar
    14     8     9   ar
    15     9    10   ar
    16    10    11   ar
    17    11    12   ar
    18    16    17   ar
    19    17    13   ar
    20     6     1   ar
    21    12     7   ar
    22    18    20    1
    23    18    21    1
@<TRIPOS>MOLECULE
*****
 21 23 0 0 0
SMALL
GASTEIGER

@<TRIPOS>ATOM
      1 C          65.0231   91.9964   11.8024 C.ar    1  UNL1        0.0537
      2 C          63.7843   91.4517   11.1556 C.ar    1  UNL1        0.1019
      3 N          62.8915   90.5154   11.9148 N.ar    1  UNL1       -0.2422
      4 C          63.2376   90.1239   13.3208 C.ar    1  UNL1        0.0989
      5 C          64.4765   90.6686   13.9676 C.ar    1  UNL1        0.0208
      6 C          65.3692   91.6048   13.2085 C.ar    1  UNL1        0.0061
      7 C          66.6082   92.1496   13.8553 C.ar    1  UNL1        0.0033
      8 C          67.9581   91.6614   13.4201 C.ar    1  UNL1        0.0207
      9 C          69.1970   92.2061   14.0668 C.ar    1  UNL1        0.0989
     10 N          69.0861   93.2390   15.1489 N.ar    1  UNL1       -0.2423
     11 C          67.7362   93.7272   15.5842 C.ar    1  UNL1        0.0989
     12 C          66.4972   93.1825   14.9373 C.ar    1  UNL1        0.0207
     13 C          66.9010   94.9580   10.1386 C.ar    1  UNL1        0.1385
     14 C          67.6788   93.7887    9.6114 C.ar    1  UNL1        0.0375
     15 C          67.0701   92.5370   10.1705 C.ar    1  UNL1        0.0404
     16 C          65.9160   92.9327   11.0433 C.ar    1  UNL1        0.1464
     17 O          65.8115   94.4289   11.0235 O.2     1  UNL1       -0.4563
     18 N          67.6265   96.8086    8.4657 N.3     1  UNL1       -0.3148
     19 C          67.1661   96.4027    9.8343 C.3     1  UNL1        0.1307
     20 H          67.7567   97.8199    8.4368 H       1  UNL1        0.1192
     21 H          66.9256   96.5362    7.7765 H       1  UNL1        0.1192
@<TRIPOS>BOND
     1    18    19    1
     2    19    13    1
     3    13    14   ar
     4    14    15   ar
     5    15    16   ar
     6    16     1    1
     7     1     2   ar
     8     2     3   ar
     9     3     4   ar
    10     4     5   ar
    11     5     6   ar
    12     6     7    1
    13     7     8   ar
    14     8     9   ar
    15     9    10   ar
    16    10    11   ar
    17    11    12   ar
    18    16    17   ar
    19    17    13   ar
    20     6     1   ar
    21    12     7   ar
    22    18    20    1
    23    18    21    1
@<TRIPOS>MOLECULE
*****
 21 23 0 0 0
SMALL
GASTEIGER

@<TRIPOS>ATOM
      1 C          64.5722   91.4043   12.7498 C.ar    1  UNL1        0.0537
      2 C          63.4850   90.4800   13.2120 C.ar    1  UNL1        0.1019
      3 N          62.4160   90.0420   12.2553 N.ar    1  UNL1       -0.2422
      4 C          62.4342   90.5283   10.8364 C.ar    1  UNL1        0.0989
      5 C          63.5214   91.4526   10.3742 C.ar    1  UNL1        0.0208
      6 C          64.5904   91.8906   11.3309 C.ar    1  UNL1        0.0061
      7 C          65.6777   92.8149   10.8688 C.ar    1  UNL1        0.0033
      8 C          66.8535   92.2709   10.1127 C.ar    1  UNL1        0.0207
      9 C          67.9407   93.1951    9.6506 C.ar    1  UNL1        0.0989
     10 N          67.8522   94.6635    9.9444 N.ar    1  UNL1       -0.2423
     11 C          66.6764   95.2075   10.7004 C.ar    1  UNL1        0.0989
     12 C          65.5891   94.2831   11.1626 C.ar    1  UNL1        0.0207
     13 C          67.8047   92.4143   14.6463 C.ar    1  UNL1        0.1385
     14 C          66.7681   92.6186   15.7111 C.ar    1  UNL1        0.0375
     15 C          65.4311   92.2651   15.1303 C.ar    1  UNL1        0.0404
     16 C          65.6413   91.8423   13.7065 C.ar    1  UNL1        0.1464
     17 O          67.1083   91.9346   13.4074 O.2     1  UNL1       -0.4563
     18 N          70.2254   92.1642   13.7363 N.3     1  UNL1       -0.3148
     19 C          69.2789   92.6486   14.7944 C.3     1  UNL1        0.1307
     20 H          71.1809   92.4072   13.9978 H       1  UNL1        0.1192
     21 H          69.9941   92.6045   12.8458 H       1  UNL1        0.1192
@<TRIPOS>BOND
     1    18    19    1
     2    19    13    1
     3    13    14   ar
     4    14    15   ar
     5    15    16   ar
     6    16     1    1
     7     1     2   ar
     8     2     3   ar
     9     3     4   ar
    10     4     5   ar
    11     5     6   ar
    12     6     7    1
    13     7     8   ar
    14     8     9   ar
    15     9    10   ar
    16    10    11   ar
    17    11    12   ar
    18    16    17   ar
    19    17    13   ar
    20     6     1   ar
    21    12     7   ar
    22    18    20    1
    23    18    21    1
@<TRIPOS>MOLECULE
*****
 21 23 0 0 0
SMALL
GASTEIGER

@<TRIPOS>ATOM
      1 C          64.4304   90.4868   13.6167 C.ar    1  UNL1        0.0537
      2 C          65.5673   91.4210   13.9079 C.ar    1  UNL1        0.1019
      3 N          65.9861   92.4344   12.8844 N.ar    1  UNL1       -0.2422
      4 C          65.2681   92.5137   11.5698 C.ar    1  UNL1        0.0989
      5 C          64.1312   91.5795   11.2787 C.ar    1  UNL1        0.0208
      6 C          63.7124   90.5661   12.3021 C.ar    1  UNL1        0.0061
      7 C          62.5755   89.6318   12.0110 C.ar    1  UNL1        0.0033
      8 C          61.1600   90.0928   12.1950 C.ar    1  UNL1        0.0207
      9 C          60.0231   89.1586   11.9039 C.ar    1  UNL1        0.0989
     10 N          60.3017   87.7633   11.4288 N.ar    1  UNL1       -0.2423
     11 C          61.7172   87.3023   11.2447 C.ar    1  UNL1        0.0989
     12 C          62.8541   88.2366   11.5359 C.ar    1  UNL1        0.0207
     13 C          63.6589   87.3669   15.7930 C.ar    1  UNL1        0.1385
     14 C          63.0750   88.4607   16.6372 C.ar    1  UNL1        0.0375
     15 C          63.2929   89.7626   15.9247 C.ar    1  UNL1        0.0404
     16 C          64.0115   89.4733   14.6402 C.ar    1  UNL1        0.1464
     17 O          64.2377   87.9927   14.5588 O.2     1  UNL1       -0.4563
     18 N          64.6668   84.9924   15.4832 N.3     1  UNL1       -0.3148
     19 C          63.6632   85.9040   16.1249 C.3     1  UNL1        0.1307
     20 H          64.5260   84.0403   15.8210 H       1  UNL1        0.1192
     21 H          65.6089   85.3020   15.7220 H       1  UNL1        0.1192
@<TRIPOS>BOND
     1    18    19    1
     2    19    13    1
     3    13    14   ar
     4    14    15   ar
     5    15    16   ar
     6    16     1    1
     7     1     2   ar
     8     2     3   ar
     9     3     4   ar
    10     4     5   ar
    11     5     6   ar
    12     6     7    1
    13     7     8   ar
    14     8     9   ar
    15     9    10   ar
    16    10    11   ar
    17    11    12   ar
    18    16    17   ar
    19    17    13   ar
    20     6     1   ar
    21    12     7   ar
    22    18    20    1
    23    18    21    1
@<TRIPOS>MOLECULE
*****
 21 23 0 0 0
SMALL
GASTEIGER

@<TRIPOS>ATOM
      1 C          63.9215   90.5329   12.7046 C.ar    1  UNL1        0.0537
      2 C          64.3729   91.6873   11.8600 C.ar    1  UNL1        0.1019
      3 N          65.4683   92.5892   12.3464 N.ar    1  UNL1       -0.2422
      4 C          66.1122   92.3367   13.6774 C.ar    1  UNL1        0.0989
      5 C          65.6608   91.1822   14.5220 C.ar    1  UNL1        0.0208
      6 C          64.5654   90.2803   14.0356 C.ar    1  UNL1        0.0061
      7 C          64.1139   89.1257   14.8801 C.ar    1  UNL1        0.0033
      8 C          64.4843   87.7243   14.4944 C.ar    1  UNL1        0.0207
      9 C          64.0329   86.5697   15.3388 C.ar    1  UNL1        0.0989
     10 N          63.2110   86.8166   16.5692 N.ar    1  UNL1       -0.2423
     11 C          62.8406   88.2180   16.9549 C.ar    1  UNL1        0.0989
     12 C          63.2921   89.3726   16.1104 C.ar    1  UNL1        0.0207
     13 C          61.6351   87.6848   11.3905 C.ar    1  UNL1        0.1385
     14 C          60.6456   88.8011   11.5487 C.ar    1  UNL1        0.0375
     15 C          61.3817   90.0038   12.0602 C.ar    1  UNL1        0.0404
     16 C          62.8260   89.6309   12.2181 C.ar    1  UNL1        0.1464
     17 O          62.9826   88.1977   11.8042 O.2     1  UNL1       -0.4563
     18 N          62.1080   85.1305   11.4331 N.3     1  UNL1       -0.3148
     19 C          61.3304   86.2990   10.9040 C.3     1  UNL1        0.1307
     20 H          61.7708   84.2722   10.9970 H       1  UNL1        0.1192
     21 H          61.9845   85.0695   12.4438 H       1  UNL1        0.1192
@<TRIPOS>BOND
     1    18    19    1
     2    19    13    1
     3    13    14   ar
     4    14    15   ar
     5    15    16   ar
     6    16     1    1
     7     1     2   ar
     8     2     3   ar
     9     3     4   ar
    10     4     5   ar
    11     5     6   ar
    12     6     7    1
    13     7     8   ar
    14     8     9   ar
    15     9    10   ar
    16    10    11   ar
    17    11    12   ar
    18    16    17   ar
    19    17    13   ar
    20     6     1   ar
    21    12     7   ar
    22    18    20    1
    23    18    21    1
@<TRIPOS>MOLECULE
*****
 21 23 0 0 0
SMALL
GASTEIGER

@<TRIPOS>ATOM
      1 C          63.4813   84.0059   13.4580 C.ar    1  UNL1        0.0537
      2 C          63.7973   83.0065   14.5310 C.ar    1  UNL1        0.1019
      3 N          63.5490   81.5465   14.2927 N.ar    1  UNL1       -0.2422
      4 C          62.9848   81.0860   12.9814 C.ar    1  UNL1        0.0989
      5 C          62.6688   82.0853   11.9084 C.ar    1  UNL1        0.0208
      6 C          62.9170   83.5453   12.1467 C.ar    1  UNL1        0.0061
      7 C          62.6010   84.5448   11.0737 C.ar    1  UNL1        0.0033
      8 C          63.3755   84.5362    9.7892 C.ar    1  UNL1        0.0207
      9 C          63.0596   85.5356    8.7162 C.ar    1  UNL1        0.0989
     10 N          61.9691   86.5437    8.9278 N.ar    1  UNL1       -0.2423
     11 C          61.1946   86.5523   10.2123 C.ar    1  UNL1        0.0989
     12 C          61.5106   85.5528   11.2853 C.ar    1  UNL1        0.0207
     13 C          63.7294   87.8793   13.4396 C.ar    1  UNL1        0.1385
     14 C          64.4936   87.5459   14.6866 C.ar    1  UNL1        0.0375
     15 C          64.4937   86.0543   14.8452 C.ar    1  UNL1        0.0404
     16 C          63.7295   85.4659   13.6963 C.ar    1  UNL1        0.1464
     17 O          63.2572   86.5939   12.8276 O.2     1  UNL1       -0.4563
     18 N          62.4502   90.1385   13.5393 N.3     1  UNL1       -0.3148
     19 C          63.4811   89.2565   12.8995 C.3     1  UNL1        0.1307
     20 H          62.4143   91.0314   13.0476 H       1  UNL1        0.1192
     21 H          62.6978   90.2978   14.5158 H       1  UNL1        0.1192
@<TRIPOS>BOND
     1    18    19    1
     2    19    13    1
     3    13    14   ar
     4    14    15   ar
     5    15    16   ar
     6    16     1    1
     7     1     2   ar
     8     2     3   ar
     9     3     4   ar
    10     4     5   ar
    11     5     6   ar
    12     6     7    1
    13     7     8   ar
    14     8     9   ar
    15     9    10   ar
    16    10    11   ar
    17    11    12   ar
    18    16    17   ar
    19    17    13   ar
    20     6     1   ar
    21    12     7   ar
    22    18    20    1
    23    18    21    1
@<TRIPOS>MOLECULE
*****
 21 23 0 0 0
SMALL
GASTEIGER

@<TRIPOS>ATOM
      1 C          62.7409   83.1714   12.2500 C.ar    1  UNL1        0.0537
      2 C          62.5938   81.8818   11.4981 C.ar    1  UNL1        0.1019
      3 N          62.8609   80.5769   12.1879 N.ar    1  UNL1       -0.2422
      4 C          63.2751   80.5615   13.6295 C.ar    1  UNL1        0.0989
      5 C          63.4222   81.8511   14.3814 C.ar    1  UNL1        0.0208
      6 C          63.1551   83.1560   13.6916 C.ar    1  UNL1        0.0061
      7 C          63.3021   84.4456   14.4435 C.ar    1  UNL1        0.0033
      8 C          62.5125   84.6768   15.6977 C.ar    1  UNL1        0.0207
      9 C          62.6595   85.9664   16.4496 C.ar    1  UNL1        0.0989
     10 N          63.5963   87.0249   15.9473 N.ar    1  UNL1       -0.2423
     11 C          64.3859   86.7937   14.6931 C.ar    1  UNL1        0.0989
     12 C          64.2388   85.5040   13.9412 C.ar    1  UNL1        0.0207
     13 C          61.6493   86.7087   11.0832 C.ar    1  UNL1        0.1385
     14 C          62.4763   86.2604    9.9147 C.ar    1  UNL1        0.0375
     15 C          62.9859   84.8808   10.2097 C.ar    1  UNL1        0.0404
     16 C          62.4738   84.4764   11.5603 C.ar    1  UNL1        0.1464
     17 O          61.6477   85.6061   12.1001 O.2     1  UNL1       -0.4563
     18 N          59.6533   88.1185   11.9655 N.3     1  UNL1       -0.3148
     19 C          60.9471   88.0279   11.2119 C.3     1  UNL1        0.1307
     20 H          59.3191   89.0821   11.9527 H       1  UNL1        0.1192
     21 H          59.8003   87.8224   12.9304 H       1  UNL1        0.1192
@<TRIPOS>BOND
     1    18    19    1
     2    19    13    1
     3    13    14   ar
     4    14    15   ar
     5    15    16   ar
     6    16     1    1
     7     1     2   ar
     8     2     3   ar
     9     3     4   ar
    10     4     5   ar
    11     5     6   ar
    12     6     7    1
    13     7     8   ar
    14     8     9   ar
    15     9    10   ar
    16    10    11   ar
    17    11    12   ar
    18    16    17   ar
    19    17    13   ar
    20     6     1   ar
    21    12     7   ar
    22    18    20    1
    23    18    21    1
@<TRIPOS>MOLECULE
*****
 21 23 0 0 0
SMALL
GASTEIGER

@<TRIPOS>ATOM
      1 C          63.2214   84.5947   11.5364 C.ar    1  UNL1        0.0537
      2 C          63.4694   83.8435   10.2620 C.ar    1  UNL1        0.1019
      3 N          64.1469   82.5058   10.2997 N.ar    1  UNL1       -0.2422
      4 C          64.5764   81.9193   11.6117 C.ar    1  UNL1        0.0989
      5 C          64.3284   82.6705   12.8861 C.ar    1  UNL1        0.0208
      6 C          63.6508   84.0082   12.8484 C.ar    1  UNL1        0.0061
      7 C          63.4028   84.7595   14.1229 C.ar    1  UNL1        0.0033
      8 C          64.3142   85.8823   14.5211 C.ar    1  UNL1        0.0207
      9 C          64.0662   86.6336   15.7955 C.ar    1  UNL1        0.0989
     10 N          62.9067   86.2621   16.6717 N.ar    1  UNL1       -0.2423
     11 C          61.9953   85.1392   16.2734 C.ar    1  UNL1        0.0989
     12 C          62.2433   84.3879   14.9990 C.ar    1  UNL1        0.0207
     13 C          62.0938   88.3007   11.7803 C.ar    1  UNL1        0.1385
     14 C          60.9084   87.6812   11.1012 C.ar    1  UNL1        0.0375
     15 C          61.1865   86.2176   10.9272 C.ar    1  UNL1        0.0404
     16 C          62.5438   85.9325   11.4987 C.ar    1  UNL1        0.1464
     17 O          63.1045   87.2199   12.0260 O.2     1  UNL1       -0.4563
     18 N          62.3213   90.1490   13.5920 N.3     1  UNL1       -0.3148
     19 C          62.2423   89.7471   12.1490 C.3     1  UNL1        0.1307
     20 H          62.4200   91.1621   13.6579 H       1  UNL1        0.1192
     21 H          63.1276   89.6999   14.0264 H       1  UNL1        0.1192
@<TRIPOS>BOND
     1    18    19    1
     2    19    13    1
     3    13    14   ar
     4    14    15   ar
     5    15    16   ar
     6    16     1    1
     7     1     2   ar
     8     2     3   ar
     9     3     4   ar
    10     4     5   ar
    11     5     6   ar
    12     6     7    1
    13     7     8   ar
    14     8     9   ar
    15     9    10   ar
    16    10    11   ar
    17    11    12   ar
    18    16    17   ar
    19    17    13   ar
    20     6     1   ar
    21    12     7   ar
    22    18    20    1
    23    18    21    1
@<TRIPOS>MOLECULE
*****
 21 23 0 0 0
SMALL
GASTEIGER

@<TRIPOS>ATOM
      1 C          63.0768   86.4741   12.3165 C.ar    1  UNL1        0.0537
      2 C          63.2884   87.8186   12.9469 C.ar    1  UNL1        0.1019
      3 N          64.0532   87.9323   14.2322 N.ar    1  UNL1       -0.2422
      4 C          64.6064   86.7015   14.8872 C.ar    1  UNL1        0.0989
      5 C          64.3948   85.3570   14.2568 C.ar    1  UNL1        0.0208
      6 C          63.6301   85.2433   12.9715 C.ar    1  UNL1        0.0061
      7 C          63.4184   83.8987   12.3410 C.ar    1  UNL1        0.0033
      8 C          64.2176   83.5015   11.1354 C.ar    1  UNL1        0.0207
      9 C          64.0061   82.1570   10.5050 C.ar    1  UNL1        0.0989
     10 N          62.9953   81.2096   11.0802 N.ar    1  UNL1       -0.2423
     11 C          62.1961   81.6068   12.2858 C.ar    1  UNL1        0.0989
     12 C          62.4077   82.9514   12.9162 C.ar    1  UNL1        0.0207
     13 C          60.5670   86.5690    9.3573 C.ar    1  UNL1        0.1385
     14 C          61.7033   85.8016    8.7490 C.ar    1  UNL1        0.0375
     15 C          62.7818   85.6727    9.7836 C.ar    1  UNL1        0.0404
     16 C          62.3120   86.3604   11.0311 C.ar    1  UNL1        0.1464
     17 O          60.9432   86.9143   10.7677 O.2     1  UNL1       -0.4563
     18 N          58.9211   86.2879    7.3667 N.3     1  UNL1       -0.3148
     19 C          59.2803   86.9280    8.6749 C.3     1  UNL1        0.1307
     20 H          58.0201   86.6456    7.0493 H       1  UNL1        0.1192
     21 H          58.8620   85.2769    7.4879 H       1  UNL1        0.1192
@<TRIPOS>BOND
     1    18    19    1
     2    19    13    1
     3    13    14   ar
     4    14    15   ar
     5    15    16   ar
     6    16     1    1
     7     1     2   ar
     8     2     3   ar
     9     3     4   ar
    10     4     5   ar
    11     5     6   ar
    12     6     7    1
    13     7     8   ar
    14     8     9   ar
    15     9    10   ar
    16    10    11   ar
    17    11    12   ar
    18    16    17   ar
    19    17    13   ar
    20     6     1   ar
    21    12     7   ar
    22    18    20    1
    23    18    21    1
