@<TRIPOS>MOLECULE
*****
 42 46 0 0 0
SMALL
GASTEIGER

@<TRIPOS>ATOM
      1 C          63.6787   88.6093   13.0241 C.ar    1  UNL1        0.1200
      2 N          64.8291   89.2899   13.7049 N.ar    1  UNL1       -0.2309
      3 C          64.7572   90.7535   13.3845 C.ar    1  UNL1        0.0997
      4 C          63.5624   90.9775   12.5056 C.ar    1  UNL1        0.0961
      5 N          62.8959   89.6524   12.2829 N.ar    1  UNL1       -0.3123
      6 C          65.7125   91.8080   13.8595 C.ar    1  UNL1        0.0193
      7 C          65.5952   93.2125   13.3460 C.ar    1  UNL1        0.0038
      8 C          66.5503   94.2669   13.8210 C.ar    1  UNL1        0.0296
      9 C          67.6229   93.9169   14.8095 C.ar    1  UNL1        0.1440
     10 F          68.5781   94.9713   15.2845 F       1  UNL1       -0.2042
     11 C          67.7402   92.5125   15.3230 C.ar    1  UNL1        0.0988
     12 C          66.7850   91.4580   14.8480 C.ar    1  UNL1        0.0077
     13 C          68.8127   92.1625   16.3115 C.3     1  UNL1        0.4207
     14 F          69.8853   91.8125   17.3000 F       1  UNL1       -0.1658
     15 F          67.7712   91.9712   17.3739 F       1  UNL1       -0.1658
     16 F          69.8543   92.3537   15.2492 F       1  UNL1       -0.1658
     17 N          62.7408   84.2109   13.1782 N.pl3   1  UNL1       -0.2930
     18 C          63.5646   84.8405   14.2621 C.3     1  UNL1        0.0926
     19 C          63.8773   86.3066   14.2107 C.3     1  UNL1        0.0290
     20 C          63.3661   87.1432   13.0754 C.3     1  UNL1        0.0603
     21 C          62.5422   86.5136   11.9915 C.3     1  UNL1        0.0290
     22 C          62.2296   85.0474   12.0429 C.3     1  UNL1        0.0926
     23 C          62.9356   81.8314   12.1533 C.ar    1  UNL1        0.1157
     24 C          62.6230   80.3653   12.2048 C.ar    1  UNL1        0.1342
     25 N          63.1304   79.4520   11.1285 N.pl3   1  UNL1       -0.3424
     26 N          61.8029   79.8124   13.3325 N.ar    1  UNL1       -0.2092
     27 C          61.2954   80.7257   14.4088 C.ar    1  UNL1        0.2012
     28 N          61.6080   82.1918   14.3573 N.ar    1  UNL1       -0.2088
     29 C          62.4281   82.7447   13.2296 C.ar    1  UNL1        0.1405
     30 H          63.6687   79.8148   10.3883 H       1  UNL1        0.1437
     31 H          62.9252   78.4897   11.1623 H       1  UNL1        0.1437
     32 N          65.0453   83.0940   11.3138 N.am    1  UNL1       -0.3252
     33 C          63.7557   82.3843   11.0256 C.2     1  UNL1        0.2482
     34 O          63.2861   82.2275    9.6097 O.2     1  UNL1       -0.2702
     35 H          65.5836   83.4568   10.5736 H       1  UNL1        0.1453
     36 H          65.3535   83.1969   12.2431 H       1  UNL1        0.1453
     37 C          61.6630   89.4123   11.4629 C.3     1  UNL1        0.1245
     38 C          61.7443   89.4241    9.9652 C.3     1  UNL1        0.0969
     39 N          60.7685   88.6234    9.1548 N.3     1  UNL1       -0.2710
     40 C          60.3542   87.1823    9.1143 C.3     1  UNL1        0.0736
     41 C          59.3885   87.4911    8.0088 C.3     1  UNL1        0.0346
     42 C          59.8029   88.9321    8.0493 C.3     1  UNL1        0.0736
@<TRIPOS>BOND
     1    32    33   am
     2    33    34    2
     3    33    23    1
     4    23    24   ar
     5    24    25    1
     6    24    26   ar
     7    26    27   ar
     8    27    28   ar
     9    28    29   ar
    10    29    17    1
    11    17    18    1
    12    18    19    1
    13    19    20    1
    14    20     1    1
    15     1     2   ar
    16     2     3   ar
    17     3     6    1
    18     6     7   ar
    19     7     8   ar
    20     8     9   ar
    21     9    10    1
    22     9    11   ar
    23    11    13    1
    24    13    14    1
    25    13    15    1
    26    13    16    1
    27    11    12   ar
    28     3     4   ar
    29     4     5   ar
    30     5    37    1
    31    37    38    1
    32    38    39    1
    33    39    40    1
    34    40    41    1
    35    41    42    1
    36    20    21    1
    37    21    22    1
    38    29    23   ar
    39    22    17    1
    40     5     1   ar
    41    42    39    1
    42    12     6   ar
    43    32    35    1
    44    32    36    1
    45    25    30    1
    46    25    31    1
@<TRIPOS>MOLECULE
*****
 42 46 0 0 0
SMALL
GASTEIGER

@<TRIPOS>ATOM
      1 C          63.0697   87.9938   12.3058 C.ar    1  UNL1        0.1200
      2 N          64.2301   88.7774   12.8439 N.ar    1  UNL1       -0.2309
      3 C          63.8526   90.2291   12.8361 C.ar    1  UNL1        0.0997
      4 C          62.4588   90.3427   12.2932 C.ar    1  UNL1        0.0961
      5 N          61.9750   88.9612   11.9655 N.ar    1  UNL1       -0.3123
      6 C          64.7170   91.3673   13.2912 C.ar    1  UNL1        0.0193
      7 C          65.0761   91.5032   14.7412 C.ar    1  UNL1        0.0038
      8 C          65.9405   92.6414   15.1964 C.ar    1  UNL1        0.0296
      9 C          66.4459   93.6439   14.2015 C.ar    1  UNL1        0.1440
     10 F          67.3103   94.7820   14.6566 F       1  UNL1       -0.2042
     11 C          66.0868   93.5080   12.7515 C.ar    1  UNL1        0.0988
     12 C          65.2224   92.3697   12.2963 C.ar    1  UNL1        0.0077
     13 C          66.5922   94.5104   11.7566 C.3     1  UNL1        0.4207
     14 F          67.0975   95.5127   10.7617 F       1  UNL1       -0.1658
     15 F          67.1200   93.3962   10.9022 F       1  UNL1       -0.1658
     16 F          66.0643   95.6245   12.6110 F       1  UNL1       -0.1658
     17 N          62.9020   83.5253   11.8013 N.pl3   1  UNL1       -0.2930
     18 C          62.2848   84.4205   10.7679 C.3     1  UNL1        0.0926
     19 C          62.3407   85.9099   10.9361 C.3     1  UNL1        0.0290
     20 C          63.0138   86.5044   12.1377 C.3     1  UNL1        0.0603
     21 C          63.6310   85.6092   13.1710 C.3     1  UNL1        0.0290
     22 C          63.5750   84.1197   13.0028 C.3     1  UNL1        0.0926
     23 C          62.5005   81.1615   12.8018 C.ar    1  UNL1        0.1157
     24 C          62.4446   79.6720   12.6336 C.ar    1  UNL1        0.1342
     25 N          62.0990   78.7976   13.8024 N.pl3   1  UNL1       -0.3424
     26 N          62.7342   79.0569   11.2965 N.ar    1  UNL1       -0.2092
     27 C          63.0798   79.9312   10.1278 C.ar    1  UNL1        0.2012
     28 N          63.1357   81.4207   10.2960 N.ar    1  UNL1       -0.2088
     29 C          62.8460   82.0358   11.6331 C.ar    1  UNL1        0.1405
     30 H          61.9088   79.2014   14.6800 H       1  UNL1        0.1437
     31 H          62.0623   77.8200   13.6920 H       1  UNL1        0.1437
     32 N          63.3372   82.2734   14.9958 N.am    1  UNL1       -0.3252
     33 C          62.2108   81.7766   14.1389 C.2     1  UNL1        0.2482
     34 O          60.7947   81.8950   14.6190 O.2     1  UNL1       -0.2702
     35 H          63.1471   82.6771   15.8734 H       1  UNL1        0.1453
     36 H          64.2667   82.1957   14.6807 H       1  UNL1        0.1453
     37 C          60.6322   88.6090   11.3973 C.3     1  UNL1        0.1245
     38 C          60.1963   89.1924   10.0860 C.3     1  UNL1        0.0969
     39 N          59.7822   88.2879    8.9633 N.3     1  UNL1       -0.2710
     40 C          59.6384   86.8045    8.7944 C.3     1  UNL1        0.0736
     41 C          59.1965   87.0088    7.3756 C.3     1  UNL1        0.0346
     42 C          59.3403   88.4923    7.5445 C.3     1  UNL1        0.0736
@<TRIPOS>BOND
     1    32    33   am
     2    33    34    2
     3    33    23    1
     4    23    24   ar
     5    24    25    1
     6    24    26   ar
     7    26    27   ar
     8    27    28   ar
     9    28    29   ar
    10    29    17    1
    11    17    18    1
    12    18    19    1
    13    19    20    1
    14    20     1    1
    15     1     2   ar
    16     2     3   ar
    17     3     6    1
    18     6     7   ar
    19     7     8   ar
    20     8     9   ar
    21     9    10    1
    22     9    11   ar
    23    11    13    1
    24    13    14    1
    25    13    15    1
    26    13    16    1
    27    11    12   ar
    28     3     4   ar
    29     4     5   ar
    30     5    37    1
    31    37    38    1
    32    38    39    1
    33    39    40    1
    34    40    41    1
    35    41    42    1
    36    20    21    1
    37    21    22    1
    38    29    23   ar
    39    22    17    1
    40     5     1   ar
    41    42    39    1
    42    12     6   ar
    43    32    35    1
    44    32    36    1
    45    25    30    1
    46    25    31    1
@<TRIPOS>MOLECULE
*****
 42 46 0 0 0
SMALL
GASTEIGER

@<TRIPOS>ATOM
      1 C          63.1978   88.3137   12.6038 C.ar    1  UNL1        0.1200
      2 N          64.3102   89.1015   13.2297 N.ar    1  UNL1       -0.2309
      3 C          64.1196   90.5437   12.8639 C.ar    1  UNL1        0.0997
      4 C          62.8893   90.6472   12.0119 C.ar    1  UNL1        0.0961
      5 N          62.3196   89.2689   11.8512 N.ar    1  UNL1       -0.3123
      6 C          65.0039   91.6825   13.2775 C.ar    1  UNL1        0.0193
      7 C          65.5154   91.7620   14.6854 C.ar    1  UNL1        0.0038
      8 C          66.3997   92.9007   15.0990 C.ar    1  UNL1        0.0296
      9 C          66.7727   93.9602   14.1047 C.ar    1  UNL1        0.1440
     10 F          67.6570   95.0989   14.5182 F       1  UNL1       -0.2042
     11 C          66.2612   93.8807   12.6968 C.ar    1  UNL1        0.0988
     12 C          65.3769   92.7419   12.2832 C.ar    1  UNL1        0.0077
     13 C          66.6342   94.9401   11.7025 C.3     1  UNL1        0.4207
     14 F          67.0071   95.9994   10.7082 F       1  UNL1       -0.1658
     15 F          66.0893   95.9936   12.6207 F       1  UNL1       -0.1658
     16 F          67.1791   93.8865   10.7844 F       1  UNL1       -0.1658
     17 N          62.5999   83.8653   12.9273 N.pl3   1  UNL1       -0.2930
     18 C          63.3518   84.6007   13.9967 C.3     1  UNL1        0.0926
     19 C          63.5511   86.0835   13.8889 C.3     1  UNL1        0.0290
     20 C          62.9985   86.8309   12.7116 C.3     1  UNL1        0.0603
     21 C          62.2465   86.0955   11.6422 C.3     1  UNL1        0.0290
     22 C          62.0472   84.6127   11.7500 C.3     1  UNL1        0.0926
     23 C          62.8807   81.4794   11.9379 C.ar    1  UNL1        0.1157
     24 C          62.6814   79.9967   12.0458 C.ar    1  UNL1        0.1342
     25 N          63.1616   79.0936   10.9485 N.pl3   1  UNL1       -0.3424
     26 N          62.0020   79.4170   13.2509 N.ar    1  UNL1       -0.2092
     27 C          61.5219   80.3200   14.3481 C.ar    1  UNL1        0.2012
     28 N          61.7212   81.8028   14.2402 N.ar    1  UNL1       -0.2088
     29 C          62.4006   82.3825   13.0351 C.ar    1  UNL1        0.1405
     30 H          63.6075   79.4740   10.1575 H       1  UNL1        0.1437
     31 H          63.0308   78.1204   11.0193 H       1  UNL1        0.1437
     32 N          64.8806   82.7556   10.8787 N.am    1  UNL1       -0.3252
     33 C          63.5601   82.0592   10.7328 C.2     1  UNL1        0.2482
     34 O          62.9191   81.9425    9.3817 O.2     1  UNL1       -0.2702
     35 H          65.3265   83.1360   10.0877 H       1  UNL1        0.1453
     36 H          65.3014   82.8321   11.7654 H       1  UNL1        0.1453
     37 C          61.0881   88.9091   11.0742 C.3     1  UNL1        0.1245
     38 C          61.0629   89.0846    9.5847 C.3     1  UNL1        0.0969
     39 N          60.2767   88.1347    8.7307 N.3     1  UNL1       -0.2710
     40 C          59.3704   88.2770    7.5440 C.3     1  UNL1        0.0736
     41 C          59.1648   86.7913    7.5229 C.3     1  UNL1        0.0346
     42 C          60.0711   86.6490    8.7096 C.3     1  UNL1        0.0736
@<TRIPOS>BOND
     1    32    33   am
     2    33    34    2
     3    33    23    1
     4    23    24   ar
     5    24    25    1
     6    24    26   ar
     7    26    27   ar
     8    27    28   ar
     9    28    29   ar
    10    29    17    1
    11    17    18    1
    12    18    19    1
    13    19    20    1
    14    20     1    1
    15     1     2   ar
    16     2     3   ar
    17     3     6    1
    18     6     7   ar
    19     7     8   ar
    20     8     9   ar
    21     9    10    1
    22     9    11   ar
    23    11    13    1
    24    13    14    1
    25    13    15    1
    26    13    16    1
    27    11    12   ar
    28     3     4   ar
    29     4     5   ar
    30     5    37    1
    31    37    38    1
    32    38    39    1
    33    39    40    1
    34    40    41    1
    35    41    42    1
    36    20    21    1
    37    21    22    1
    38    29    23   ar
    39    22    17    1
    40     5     1   ar
    41    42    39    1
    42    12     6   ar
    43    32    35    1
    44    32    36    1
    45    25    30    1
    46    25    31    1
@<TRIPOS>MOLECULE
*****
 42 46 0 0 0
SMALL
GASTEIGER

@<TRIPOS>ATOM
      1 C          64.0481   89.3761   13.3582 C.ar    1  UNL1        0.1200
      2 N          64.8643   90.1155   12.3398 N.ar    1  UNL1       -0.2309
      3 C          64.9493   91.5508   12.7672 C.ar    1  UNL1        0.0997
      4 C          64.1856   91.6985   14.0498 C.ar    1  UNL1        0.0961
      5 N          63.6286   90.3545   14.4150 N.ar    1  UNL1       -0.3123
      6 C          65.6712   92.6461   12.0397 C.ar    1  UNL1        0.0193
      7 C          65.5636   94.0631   12.5199 C.ar    1  UNL1        0.0038
      8 C          66.2854   95.1583   11.7925 C.ar    1  UNL1        0.0296
      9 C          67.1150   94.8367   10.5848 C.ar    1  UNL1        0.1440
     10 F          67.8369   95.9319    9.8574 F       1  UNL1       -0.2042
     11 C          67.2226   93.4197   10.1046 C.ar    1  UNL1        0.0988
     12 C          66.5007   92.3244   10.8321 C.ar    1  UNL1        0.0077
     13 C          68.0521   93.0980    8.8970 C.3     1  UNL1        0.4207
     14 F          68.8816   92.7763    7.6894 F       1  UNL1       -0.1658
     15 F          68.8201   92.0858    9.6942 F       1  UNL1       -0.1658
     16 F          67.2841   94.1102    8.0998 F       1  UNL1       -0.1658
     17 N          63.0357   84.9926   13.2603 N.pl3   1  UNL1       -0.2930
     18 C          64.0341   85.5097   14.2531 C.3     1  UNL1        0.0926
     19 C          64.3716   86.9709   14.2858 C.3     1  UNL1        0.0290
     20 C          63.7106   87.9150   13.3256 C.3     1  UNL1        0.0603
     21 C          62.7122   87.3978   12.3327 C.3     1  UNL1        0.0290
     22 C          62.3748   85.9366   12.3001 C.3     1  UNL1        0.0926
     23 C          63.0264   82.7128   12.0143 C.ar    1  UNL1        0.1157
     24 C          62.6889   81.2516   11.9817 C.ar    1  UNL1        0.1342
     25 N          63.0170   80.4329   10.7683 N.pl3   1  UNL1       -0.3424
     26 N          62.0234   80.6090   13.1624 N.ar    1  UNL1       -0.2092
     27 C          61.6953   81.4276   14.3758 C.ar    1  UNL1        0.2012
     28 N          62.0328   82.8888   14.4084 N.ar    1  UNL1       -0.2088
     29 C          62.6983   83.5313   13.2276 C.ar    1  UNL1        0.1405
     30 H          63.4538   80.8547    9.9933 H       1  UNL1        0.1437
     31 H          62.7955   79.4739   10.7469 H       1  UNL1        0.1437
     32 N          62.9633   84.3965   10.0367 N.am    1  UNL1       -0.3252
     33 C          63.6919   83.3553   10.8335 C.2     1  UNL1        0.2482
     34 O          65.0860   82.9567   10.4496 O.2     1  UNL1       -0.2702
     35 H          63.4001   84.8183    9.2617 H       1  UNL1        0.1453
     36 H          62.0483   84.6582   10.2887 H       1  UNL1        0.1453
     37 C          62.7980   90.0435   15.6247 C.3     1  UNL1        0.1245
     38 C          63.3805   89.2370   16.7473 C.3     1  UNL1        0.0969
     39 N          62.8288   87.8774   17.0589 N.3     1  UNL1       -0.2710
     40 C          61.6130   87.1048   16.6409 C.3     1  UNL1        0.0736
     41 C          62.0486   85.9546   17.4996 C.3     1  UNL1        0.0346
     42 C          63.2644   86.7272   17.9176 C.3     1  UNL1        0.0736
@<TRIPOS>BOND
     1    32    33   am
     2    33    34    2
     3    33    23    1
     4    23    24   ar
     5    24    25    1
     6    24    26   ar
     7    26    27   ar
     8    27    28   ar
     9    28    29   ar
    10    29    17    1
    11    17    18    1
    12    18    19    1
    13    19    20    1
    14    20     1    1
    15     1     2   ar
    16     2     3   ar
    17     3     6    1
    18     6     7   ar
    19     7     8   ar
    20     8     9   ar
    21     9    10    1
    22     9    11   ar
    23    11    13    1
    24    13    14    1
    25    13    15    1
    26    13    16    1
    27    11    12   ar
    28     3     4   ar
    29     4     5   ar
    30     5    37    1
    31    37    38    1
    32    38    39    1
    33    39    40    1
    34    40    41    1
    35    41    42    1
    36    20    21    1
    37    21    22    1
    38    29    23   ar
    39    22    17    1
    40     5     1   ar
    41    42    39    1
    42    12     6   ar
    43    32    35    1
    44    32    36    1
    45    25    30    1
    46    25    31    1
@<TRIPOS>MOLECULE
*****
 42 46 0 0 0
SMALL
GASTEIGER

@<TRIPOS>ATOM
      1 C          72.2147   75.8185   12.8369 C.ar    1  UNL1        0.1200
      2 N          71.6992   74.4812   12.3946 N.ar    1  UNL1       -0.2309
      3 C          71.8743   73.5179   13.5310 C.ar    1  UNL1        0.0997
      4 C          72.4981   74.2599   14.6757 C.ar    1  UNL1        0.0961
      5 N          72.7085   75.6818   14.2467 N.ar    1  UNL1       -0.3123
      6 C          71.4926   72.0673   13.5240 C.ar    1  UNL1        0.0193
      7 C          72.3272   71.0685   14.2696 C.ar    1  UNL1        0.0038
      8 C          71.9456   69.6180   14.2626 C.ar    1  UNL1        0.0296
      9 C          70.7292   69.1660   13.5099 C.ar    1  UNL1        0.1440
     10 F          70.3476   67.7155   13.5029 F       1  UNL1       -0.2042
     11 C          69.8947   70.1647   12.7643 C.ar    1  UNL1        0.0988
     12 C          70.2764   71.6154   12.7713 C.ar    1  UNL1        0.0077
     13 C          68.6785   69.7129   12.0116 C.3     1  UNL1        0.4207
     14 F          67.4622   69.2610   11.2589 F       1  UNL1       -0.1658
     15 F          68.3151   68.8012   13.1460 F       1  UNL1       -0.1658
     16 F          69.0418   70.6245   10.8772 F       1  UNL1       -0.1658
     17 N          72.2705   79.5803   10.3679 N.pl3   1  UNL1       -0.2930
     18 C          73.5040   78.7332   10.4721 C.3     1  UNL1        0.0926
     19 C          73.4855   77.4793   11.2950 C.3     1  UNL1        0.0290
     20 C          72.2333   77.0724   12.0139 C.3     1  UNL1        0.0603
     21 C          70.9998   77.9195   11.9097 C.3     1  UNL1        0.0290
     22 C          71.0184   79.1735   11.0867 C.3     1  UNL1        0.0926
     23 C          72.3750   80.7488    8.0498 C.ar    1  UNL1        0.1157
     24 C          72.3936   82.0027    7.2268 C.ar    1  UNL1        0.1342
     25 N          72.4795   81.9174    5.7317 N.pl3   1  UNL1       -0.3424
     26 N          72.3264   83.3420    7.8989 N.ar    1  UNL1       -0.2092
     27 C          72.2405   83.4274    9.3940 C.ar    1  UNL1        0.2012
     28 N          72.2219   82.1735   10.2170 N.ar    1  UNL1       -0.2088
     29 C          72.2891   80.8342    9.5448 C.ar    1  UNL1        0.1405
     30 H          72.5236   81.0384    5.2905 H       1  UNL1        0.1437
     31 H          72.4917   82.7404    5.1915 H       1  UNL1        0.1437
     32 N          73.6310   78.5207    7.5939 N.am    1  UNL1       -0.3252
     33 C          72.4423   79.4095    7.3777 C.2     1  UNL1        0.2482
     34 O          71.3207   78.9590    6.4893 O.2     1  UNL1       -0.2702
     35 H          73.6751   77.6417    7.1527 H       1  UNL1        0.1453
     36 H          74.3671   78.8164    8.1769 H       1  UNL1        0.1453
     37 C          73.3074   76.7750   15.0811 C.3     1  UNL1        0.1245
     38 C          72.4970   77.9915   15.4174 C.3     1  UNL1        0.0969
     39 N          72.9104   78.8772   16.5552 N.3     1  UNL1       -0.2710
     40 C          72.7727   80.3380   16.8663 C.3     1  UNL1        0.0736
     41 C          73.4951   80.1297   18.1643 C.3     1  UNL1        0.0346
     42 C          73.6328   78.6688   17.8531 C.3     1  UNL1        0.0736
@<TRIPOS>BOND
     1    32    33   am
     2    33    34    2
     3    33    23    1
     4    23    24   ar
     5    24    25    1
     6    24    26   ar
     7    26    27   ar
     8    27    28   ar
     9    28    29   ar
    10    29    17    1
    11    17    18    1
    12    18    19    1
    13    19    20    1
    14    20     1    1
    15     1     2   ar
    16     2     3   ar
    17     3     6    1
    18     6     7   ar
    19     7     8   ar
    20     8     9   ar
    21     9    10    1
    22     9    11   ar
    23    11    13    1
    24    13    14    1
    25    13    15    1
    26    13    16    1
    27    11    12   ar
    28     3     4   ar
    29     4     5   ar
    30     5    37    1
    31    37    38    1
    32    38    39    1
    33    39    40    1
    34    40    41    1
    35    41    42    1
    36    20    21    1
    37    21    22    1
    38    29    23   ar
    39    22    17    1
    40     5     1   ar
    41    42    39    1
    42    12     6   ar
    43    32    35    1
    44    32    36    1
    45    25    30    1
    46    25    31    1
@<TRIPOS>MOLECULE
*****
 42 46 0 0 0
SMALL
GASTEIGER

@<TRIPOS>ATOM
      1 C          62.7294   88.6078   11.6469 C.ar    1  UNL1        0.1200
      2 N          63.4206   87.4132   12.2344 N.ar    1  UNL1       -0.2309
      3 C          62.4215   86.2982   12.3261 C.ar    1  UNL1        0.0997
      4 C          61.1127   86.8036   11.7952 C.ar    1  UNL1        0.0961
      5 N          61.3031   88.2311   11.3754 N.ar    1  UNL1       -0.3123
      6 C          62.6848   84.9197   12.8556 C.ar    1  UNL1        0.0193
      7 C          62.9511   84.7161   14.3177 C.ar    1  UNL1        0.0038
      8 C          63.2144   83.3377   14.8473 C.ar    1  UNL1        0.0296
      9 C          63.2114   82.1627   13.9148 C.ar    1  UNL1        0.1440
     10 F          63.4748   80.7843   14.4443 F       1  UNL1       -0.2042
     11 C          62.9451   82.3663   12.4527 C.ar    1  UNL1        0.0988
     12 C          62.6818   83.7448   11.9231 C.ar    1  UNL1        0.0077
     13 C          62.9421   81.1914   11.5202 C.3     1  UNL1        0.4207
     14 F          62.9392   80.0165   10.5877 F       1  UNL1       -0.1658
     15 F          61.9939   80.4703   12.4317 F       1  UNL1       -0.1658
     16 F          63.8904   81.9124   10.6087 F       1  UNL1       -0.1658
     17 N          64.6055   92.6178   10.8403 N.pl3   1  UNL1       -0.2930
     18 C          64.7613   91.9739   12.1861 C.3     1  UNL1        0.0926
     19 C          64.1360   90.6373   12.4550 C.3     1  UNL1        0.0290
     20 C          63.3547   89.9444   11.3780 C.3     1  UNL1        0.0603
     21 C          63.1989   90.5883   10.0322 C.3     1  UNL1        0.0290
     22 C          63.8243   91.9250    9.7634 C.3     1  UNL1        0.0926
     23 C          66.6605   94.0375   10.1253 C.ar    1  UNL1        0.1157
     24 C          67.2858   95.3741    9.8565 C.ar    1  UNL1        0.1342
     25 N          68.7156   95.4572    9.4102 N.pl3   1  UNL1       -0.3424
     26 N          66.4815   96.6278   10.0339 N.ar    1  UNL1       -0.2092
     27 C          65.0519   96.5447   10.4801 C.ar    1  UNL1        0.2012
     28 N          64.4265   95.2081   10.7489 N.ar    1  UNL1       -0.2088
     29 C          65.2309   93.9545   10.5715 C.ar    1  UNL1        0.1405
     30 H          69.2435   94.6344    9.2937 H       1  UNL1        0.1437
     31 H          69.1260   96.3345    9.2338 H       1  UNL1        0.1437
     32 N          67.8217   91.9466   11.1401 N.am    1  UNL1       -0.3252
     33 C          67.4648   92.7839    9.9478 C.2     1  UNL1        0.2482
     34 O          67.9123   92.3675    8.5781 O.2     1  UNL1       -0.2702
     35 H          68.3496   91.1238   11.0237 H       1  UNL1        0.1453
     36 H          67.5279   92.2199   12.0392 H       1  UNL1        0.1453
     37 C          60.2517   89.1248   10.7875 C.3     1  UNL1        0.1245
     38 C          59.9846   89.0986    9.3117 C.3     1  UNL1        0.0969
     39 N          59.9759   87.7926    8.5741 N.3     1  UNL1       -0.2710
     40 C          61.0015   86.7430    8.2635 C.3     1  UNL1        0.0736
     41 C          59.9635   85.9455    7.5310 C.3     1  UNL1        0.0346
     42 C          58.9379   86.9951    7.8416 C.3     1  UNL1        0.0736
@<TRIPOS>BOND
     1    32    33   am
     2    33    34    2
     3    33    23    1
     4    23    24   ar
     5    24    25    1
     6    24    26   ar
     7    26    27   ar
     8    27    28   ar
     9    28    29   ar
    10    29    17    1
    11    17    18    1
    12    18    19    1
    13    19    20    1
    14    20     1    1
    15     1     2   ar
    16     2     3   ar
    17     3     6    1
    18     6     7   ar
    19     7     8   ar
    20     8     9   ar
    21     9    10    1
    22     9    11   ar
    23    11    13    1
    24    13    14    1
    25    13    15    1
    26    13    16    1
    27    11    12   ar
    28     3     4   ar
    29     4     5   ar
    30     5    37    1
    31    37    38    1
    32    38    39    1
    33    39    40    1
    34    40    41    1
    35    41    42    1
    36    20    21    1
    37    21    22    1
    38    29    23   ar
    39    22    17    1
    40     5     1   ar
    41    42    39    1
    42    12     6   ar
    43    32    35    1
    44    32    36    1
    45    25    30    1
    46    25    31    1
@<TRIPOS>MOLECULE
*****
 42 46 0 0 0
SMALL
GASTEIGER

@<TRIPOS>ATOM
      1 C          63.0774   88.0038   12.1908 C.ar    1  UNL1        0.1200
      2 N          64.2643   88.7929   12.6581 N.ar    1  UNL1       -0.2309
      3 C          63.8874   90.2448   12.6519 C.ar    1  UNL1        0.0997
      4 C          62.4674   90.3530   12.1806 C.ar    1  UNL1        0.0961
      5 N          61.9668   88.9680   11.8957 N.ar    1  UNL1       -0.3123
      6 C          64.7746   91.3878   13.0474 C.ar    1  UNL1        0.0193
      7 C          64.8260   92.6251   12.2010 C.ar    1  UNL1        0.0038
      8 C          65.7131   93.7680   12.5964 C.ar    1  UNL1        0.0296
      9 C          66.5490   93.6738   13.8384 C.ar    1  UNL1        0.1440
     10 F          67.4362   94.8167   14.2339 F       1  UNL1       -0.2042
     11 C          66.4977   92.4365   14.6848 C.ar    1  UNL1        0.0988
     12 C          65.6104   91.2935   14.2893 C.ar    1  UNL1        0.0077
     13 C          67.3335   92.3422   15.9268 C.3     1  UNL1        0.4207
     14 F          68.1693   92.2479   17.1687 F       1  UNL1       -0.1658
     15 F          66.2466   93.0175   16.7095 F       1  UNL1       -0.1658
     16 F          68.4203   91.6669   15.1441 F       1  UNL1       -0.1658
     17 N          62.8825   83.5296   11.7513 N.pl3   1  UNL1       -0.2930
     18 C          63.6703   84.1395   12.8726 C.3     1  UNL1        0.0926
     19 C          63.7353   85.6308   13.0191 C.3     1  UNL1        0.0290
     20 C          63.0124   86.5125   12.0443 C.3     1  UNL1        0.0603
     21 C          62.2246   85.9026   10.9229 C.3     1  UNL1        0.0290
     22 C          62.1596   84.4111   10.7764 C.3     1  UNL1        0.0926
     23 C          62.4920   81.1814   12.7922 C.ar    1  UNL1        0.1157
     24 C          62.4271   79.6900   12.6457 C.ar    1  UNL1        0.1342
     25 N          62.1016   78.8332   13.8331 N.pl3   1  UNL1       -0.3424
     26 N          62.6876   79.0554   11.3117 N.ar    1  UNL1       -0.2092
     27 C          63.0131   79.9121   10.1243 C.ar    1  UNL1        0.2012
     28 N          63.0780   81.4035   10.2708 N.ar    1  UNL1       -0.2088
     29 C          62.8175   82.0381   11.6048 C.ar    1  UNL1        0.1405
     30 H          61.9306   79.2497   14.7086 H       1  UNL1        0.1437
     31 H          62.0590   77.8543   13.7369 H       1  UNL1        0.1437
     32 N          63.3784   82.2975   14.9644 N.am    1  UNL1       -0.3252
     33 C          62.2315   81.8160   14.1261 C.2     1  UNL1        0.2482
     34 O          60.8241   81.9691   14.6217 O.2     1  UNL1       -0.2702
     35 H          63.2074   82.7140   15.8399 H       1  UNL1        0.1453
     36 H          64.3021   82.1970   14.6391 H       1  UNL1        0.1453
     37 C          60.5963   88.6100   11.4023 C.3     1  UNL1        0.1245
     38 C          60.0618   89.2394   10.1500 C.3     1  UNL1        0.0969
     39 N          59.7604   88.3882    8.9524 N.3     1  UNL1       -0.2710
     40 C          59.5743   88.6472    7.4867 C.3     1  UNL1        0.0736
     41 C          59.3341   87.1843    7.2586 C.3     1  UNL1        0.0346
     42 C          59.5202   86.9252    8.7243 C.3     1  UNL1        0.0736
@<TRIPOS>BOND
     1    32    33   am
     2    33    34    2
     3    33    23    1
     4    23    24   ar
     5    24    25    1
     6    24    26   ar
     7    26    27   ar
     8    27    28   ar
     9    28    29   ar
    10    29    17    1
    11    17    18    1
    12    18    19    1
    13    19    20    1
    14    20     1    1
    15     1     2   ar
    16     2     3   ar
    17     3     6    1
    18     6     7   ar
    19     7     8   ar
    20     8     9   ar
    21     9    10    1
    22     9    11   ar
    23    11    13    1
    24    13    14    1
    25    13    15    1
    26    13    16    1
    27    11    12   ar
    28     3     4   ar
    29     4     5   ar
    30     5    37    1
    31    37    38    1
    32    38    39    1
    33    39    40    1
    34    40    41    1
    35    41    42    1
    36    20    21    1
    37    21    22    1
    38    29    23   ar
    39    22    17    1
    40     5     1   ar
    41    42    39    1
    42    12     6   ar
    43    32    35    1
    44    32    36    1
    45    25    30    1
    46    25    31    1
@<TRIPOS>MOLECULE
*****
 42 46 0 0 0
SMALL
GASTEIGER

@<TRIPOS>ATOM
      1 C          62.7599   87.5178   12.0709 C.ar    1  UNL1        0.1200
      2 N          63.2871   86.2130   12.5900 N.ar    1  UNL1       -0.2309
      3 C          62.3023   85.1398   12.2319 C.ar    1  UNL1        0.0997
      4 C          61.1664   85.7813   11.4914 C.ar    1  UNL1        0.0961
      5 N          61.4493   87.2510   11.3919 N.ar    1  UNL1       -0.3123
      6 C          62.4307   83.6811   12.5572 C.ar    1  UNL1        0.0193
      7 C          62.3276   83.2181   13.9802 C.ar    1  UNL1        0.0038
      8 C          62.4560   81.7595   14.3055 C.ar    1  UNL1        0.0296
      9 C          62.6876   80.7637   13.2077 C.ar    1  UNL1        0.1440
     10 F          62.8160   79.3051   13.5330 F       1  UNL1       -0.2042
     11 C          62.7907   81.2268   11.7847 C.ar    1  UNL1        0.0988
     12 C          62.6623   82.6855   11.4595 C.ar    1  UNL1        0.0077
     13 C          63.0223   80.2311   10.6870 C.3     1  UNL1        0.4207
     14 F          63.2539   79.2355    9.5893 F       1  UNL1       -0.1658
     15 F          62.4765   79.1409   11.5607 F       1  UNL1       -0.1658
     16 F          63.5681   81.3214    9.8133 F       1  UNL1       -0.1658
     17 N          64.7594   91.5285   12.4788 N.pl3   1  UNL1       -0.2930
     18 C          64.8574   90.5252   13.5896 C.3     1  UNL1        0.0926
     19 C          64.1909   89.1883   13.4536 C.3     1  UNL1        0.0290
     20 C          63.4264   88.8547   12.2069 C.3     1  UNL1        0.0603
     21 C          63.3284   89.8580   11.0961 C.3     1  UNL1        0.0290
     22 C          63.9949   91.1950   11.2321 C.3     1  UNL1        0.0926
     23 C          66.1938   93.1974   13.8598 C.ar    1  UNL1        0.1157
     24 C          66.8603   94.5343   13.9958 C.ar    1  UNL1        0.1342
     25 N          67.6283   94.8664   15.2408 N.pl3   1  UNL1       -0.3424
     26 N          66.7588   95.5392   12.8868 N.ar    1  UNL1       -0.2092
     27 C          65.9909   95.2072   11.6418 C.ar    1  UNL1        0.2012
     28 N          65.3244   93.8703   11.5058 N.ar    1  UNL1       -0.2088
     29 C          65.4259   92.8655   12.6148 C.ar    1  UNL1        0.1405
     30 H          67.6949   94.2068   15.9687 H       1  UNL1        0.1437
     31 H          68.0657   95.7438   15.3300 H       1  UNL1        0.1437
     32 N          67.5023   91.3079   15.0712 N.am    1  UNL1       -0.3252
     33 C          66.2953   92.1926   14.9688 C.2     1  UNL1        0.2482
     34 O          65.1898   92.0723   15.9754 O.2     1  UNL1       -0.2702
     35 H          67.5689   90.6484   15.7991 H       1  UNL1        0.1453
     36 H          68.2279   91.3868   14.4106 H       1  UNL1        0.1453
     37 C          60.5750   88.2743   10.7297 C.3     1  UNL1        0.1245
     38 C          60.5714   88.4035    9.2353 C.3     1  UNL1        0.0969
     39 N          60.3966   87.1855    8.3775 N.3     1  UNL1       -0.2710
     40 C          61.2906   86.0689    7.9261 C.3     1  UNL1        0.0736
     41 C          60.1494   85.4630    7.1644 C.3     1  UNL1        0.0346
     42 C          59.2553   86.5796    7.6157 C.3     1  UNL1        0.0736
@<TRIPOS>BOND
     1    32    33   am
     2    33    34    2
     3    33    23    1
     4    23    24   ar
     5    24    25    1
     6    24    26   ar
     7    26    27   ar
     8    27    28   ar
     9    28    29   ar
    10    29    17    1
    11    17    18    1
    12    18    19    1
    13    19    20    1
    14    20     1    1
    15     1     2   ar
    16     2     3   ar
    17     3     6    1
    18     6     7   ar
    19     7     8   ar
    20     8     9   ar
    21     9    10    1
    22     9    11   ar
    23    11    13    1
    24    13    14    1
    25    13    15    1
    26    13    16    1
    27    11    12   ar
    28     3     4   ar
    29     4     5   ar
    30     5    37    1
    31    37    38    1
    32    38    39    1
    33    39    40    1
    34    40    41    1
    35    41    42    1
    36    20    21    1
    37    21    22    1
    38    29    23   ar
    39    22    17    1
    40     5     1   ar
    41    42    39    1
    42    12     6   ar
    43    32    35    1
    44    32    36    1
    45    25    30    1
    46    25    31    1
@<TRIPOS>MOLECULE
*****
 42 46 0 0 0
SMALL
GASTEIGER

@<TRIPOS>ATOM
      1 C          72.2853   75.9123   12.9718 C.ar    1  UNL1        0.1200
      2 N          71.7487   74.5697   12.5725 N.ar    1  UNL1       -0.2309
      3 C          71.9484   73.6295   13.7241 C.ar    1  UNL1        0.0997
      4 C          72.6085   74.3911   14.8352 C.ar    1  UNL1        0.0961
      5 N          72.8166   75.8019   14.3702 N.ar    1  UNL1       -0.3123
      6 C          71.5569   72.1819   13.7586 C.ar    1  UNL1        0.0193
      7 C          70.6938   71.6123   12.6720 C.ar    1  UNL1        0.0038
      8 C          70.3022   70.1648   12.7065 C.ar    1  UNL1        0.0296
      9 C          70.7738   69.2867   13.8276 C.ar    1  UNL1        0.1440
     10 F          70.3823   67.8392   13.8621 F       1  UNL1       -0.2042
     11 C          71.6368   69.8564   14.9142 C.ar    1  UNL1        0.0988
     12 C          72.0284   71.3040   14.8796 C.ar    1  UNL1        0.0077
     13 C          72.1084   68.9784   16.0352 C.3     1  UNL1        0.4207
     14 F          72.5799   68.1004   17.1563 F       1  UNL1       -0.1658
     15 F          70.9506   69.4295   16.8754 F       1  UNL1       -0.1658
     16 F          73.2662   68.5273   15.1950 F       1  UNL1       -0.1658
     17 N          72.2987   79.6203   10.4221 N.pl3   1  UNL1       -0.2930
     18 C          73.5449   78.7959   10.5535 C.3     1  UNL1        0.0926
     19 C          73.5405   77.5600   11.4034 C.3     1  UNL1        0.0290
     20 C          72.2897   77.1483   12.1219 C.3     1  UNL1        0.0603
     21 C          71.0435   77.9726   11.9905 C.3     1  UNL1        0.0290
     22 C          71.0479   79.2086   11.1406 C.3     1  UNL1        0.0926
     23 C          72.3835   80.7394    8.0789 C.ar    1  UNL1        0.1157
     24 C          72.3880   81.9754    7.2291 C.ar    1  UNL1        0.1342
     25 N          72.4683   81.8585    5.7358 N.pl3   1  UNL1       -0.3424
     26 N          72.3121   83.3282    7.8725 N.ar    1  UNL1       -0.2092
     27 C          72.2318   83.4451    9.3657 C.ar    1  UNL1        0.2012
     28 N          72.2273   82.2092   10.2156 N.ar    1  UNL1       -0.2088
     29 C          72.3032   80.8563    9.5722 C.ar    1  UNL1        0.1405
     30 H          72.5181   80.9706    5.3135 H       1  UNL1        0.1437
     31 H          72.4713   82.6698    5.1780 H       1  UNL1        0.1437
     32 N          73.6307   78.4904    7.7092 N.am    1  UNL1       -0.3252
     33 C          72.4593   79.3865    7.4355 C.2     1  UNL1        0.2482
     34 O          71.3638   78.9297    6.5184 O.2     1  UNL1       -0.2702
     35 H          73.6805   77.6025    7.2869 H       1  UNL1        0.1453
     36 H          74.3497   78.7903    8.3112 H       1  UNL1        0.1453
     37 C          73.4457   76.9081   15.1642 C.3     1  UNL1        0.1245
     38 C          72.6431   78.1231   15.5243 C.3     1  UNL1        0.0969
     39 N          73.0300   78.9524   16.7128 N.3     1  UNL1       -0.2710
     40 C          72.9743   80.4128   17.0505 C.3     1  UNL1        0.0736
     41 C          73.5771   80.1252   18.3936 C.3     1  UNL1        0.0346
     42 C          73.6328   78.6648   18.0559 C.3     1  UNL1        0.0736
@<TRIPOS>BOND
     1    32    33   am
     2    33    34    2
     3    33    23    1
     4    23    24   ar
     5    24    25    1
     6    24    26   ar
     7    26    27   ar
     8    27    28   ar
     9    28    29   ar
    10    29    17    1
    11    17    18    1
    12    18    19    1
    13    19    20    1
    14    20     1    1
    15     1     2   ar
    16     2     3   ar
    17     3     6    1
    18     6     7   ar
    19     7     8   ar
    20     8     9   ar
    21     9    10    1
    22     9    11   ar
    23    11    13    1
    24    13    14    1
    25    13    15    1
    26    13    16    1
    27    11    12   ar
    28     3     4   ar
    29     4     5   ar
    30     5    37    1
    31    37    38    1
    32    38    39    1
    33    39    40    1
    34    40    41    1
    35    41    42    1
    36    20    21    1
    37    21    22    1
    38    29    23   ar
    39    22    17    1
    40     5     1   ar
    41    42    39    1
    42    12     6   ar
    43    32    35    1
    44    32    36    1
    45    25    30    1
    46    25    31    1
