@<TRIPOS>MOLECULE
*****
 35 39 0 0 0
SMALL
GASTEIGER

@<TRIPOS>ATOM
      1 C          62.5519   89.7259   12.2779 C.ar    1  UNL1        0.1453
      2 C          63.0679   90.4818   11.0894 C.ar    1  UNL1        0.0375
      3 C          64.1751   91.4795   11.2581 C.ar    1  UNL1        0.0033
      4 C          64.7665   91.7214   12.6153 C.ar    1  UNL1        0.0046
      5 C          65.8738   92.7192   12.7839 C.ar    1  UNL1        0.0537
      6 C          66.4651   92.9611   14.1410 C.ar    1  UNL1        0.0045
      7 C          65.9491   92.2052   15.3295 C.ar    1  UNL1        0.0001
      8 C          64.8419   91.2074   15.1609 C.ar    1  UNL1        0.0001
      9 C          64.2506   90.9656   13.8037 C.ar    1  UNL1        0.0032
     10 C          63.1433   89.9678   13.6351 C.ar    1  UNL1        0.0375
     11 C          66.3897   93.4751   11.5955 C.2     1  UNL1        0.2517
     12 O          67.5812   92.9641   10.8411 O.2     1  UNL1       -0.2697
     13 N          65.7141   94.7420   11.1614 N.am    1  UNL1       -0.2497
     14 H          64.9320   95.0774   11.6565 H       1  UNL1        0.1581
     15 C          66.2299   95.4979    9.9729 C.ar    1  UNL1        0.2324
     16 C          65.5430   95.6303    8.6461 C.ar    1  UNL1        0.0742
     17 C          66.4118   96.4683    7.7557 C.ar    1  UNL1        0.1025
     18 C          66.1098   96.8532    6.3378 C.3     1  UNL1        0.0557
     19 N          67.6359   96.8540    8.5324 N.ar    1  UNL1       -0.0798
     20 O          67.5234   96.2542    9.9026 O.2     1  UNL1       -0.3384
     21 O          61.4447   88.7281   12.1092 O.3     1  UNL1       -0.4534
     22 C          63.7513   83.8387   11.9577 C.ar    1  UNL1        0.1739
     23 C          63.1238   84.0446   10.6110 C.ar    1  UNL1        0.0592
     24 C          62.3902   85.3184   10.3121 C.ar    1  UNL1        0.0875
     25 N          61.7626   85.5242    8.9654 N.ar    1  UNL1       -0.2435
     26 C          61.0291   86.7980    8.6666 C.ar    1  UNL1        0.1020
     27 C          60.9231   87.8660    9.7146 C.ar    1  UNL1        0.0581
     28 C          61.5507   87.6602   11.0613 C.ar    1  UNL1        0.1483
     29 C          62.2842   86.3864   11.3601 C.ar    1  UNL1        0.0554
     30 C          62.9118   86.1805   12.7069 C.ar    1  UNL1        0.0446
     31 C          63.6454   84.9067   13.0057 C.ar    1  UNL1        0.1726
     32 C          63.7843   81.4449   12.9671 C.3     1  UNL1        0.2526
     33 O          64.4849   82.5649   12.2566 O.3     1  UNL1       -0.4683
     34 O          64.2730   84.7008   14.3525 O.3     1  UNL1       -0.4684
     35 C          64.6469   85.8846   15.1945 C.3     1  UNL1        0.2526
@<TRIPOS>BOND
     1    32    33    1
     2    33    22    1
     3    22    23   ar
     4    23    24   ar
     5    24    25   ar
     6    25    26   ar
     7    26    27   ar
     8    27    28   ar
     9    28    21    1
    10    21     1    1
    11     1     2   ar
    12     2     3   ar
    13     3     4   ar
    14     4     5   ar
    15     5    11    1
    16    11    12    2
    17    11    13   am
    18    13    15    1
    19    15    16   ar
    20    16    17   ar
    21    17    18    1
    22    17    19   ar
    23    19    20   ar
    24     5     6   ar
    25     6     7   ar
    26     7     8   ar
    27     8     9   ar
    28     9    10   ar
    29    28    29   ar
    30    29    30   ar
    31    30    31   ar
    32    31    34    1
    33    34    35    1
    34    31    22   ar
    35    29    24   ar
    36    10     1   ar
    37     9     4   ar
    38    20    15   ar
    39    13    14    1
@<TRIPOS>MOLECULE
*****
 35 39 0 0 0
SMALL
GASTEIGER

@<TRIPOS>ATOM
      1 C          63.9533   90.0831   15.4348 C.ar    1  UNL1        0.1453
      2 C          64.3776   89.2264   14.2788 C.ar    1  UNL1        0.0375
      3 C          64.2153   87.7370   14.3499 C.ar    1  UNL1        0.0033
      4 C          63.6288   87.1041   15.5768 C.ar    1  UNL1        0.0046
      5 C          63.4665   85.6145   15.6478 C.ar    1  UNL1        0.0537
      6 C          62.8800   84.9816   16.8748 C.ar    1  UNL1        0.0045
      7 C          62.4557   85.8383   18.0307 C.ar    1  UNL1        0.0001
      8 C          62.6179   87.3278   17.9597 C.ar    1  UNL1        0.0001
      9 C          63.2045   87.9607   16.7327 C.ar    1  UNL1        0.0032
     10 C          63.3667   89.4502   16.6617 C.ar    1  UNL1        0.0375
     11 C          63.8908   84.7579   14.4919 C.2     1  UNL1        0.2517
     12 O          65.3427   84.4433   14.2848 O.2     1  UNL1       -0.2697
     13 N          62.8632   84.2160   13.5431 N.am    1  UNL1       -0.2497
     14 H          61.9102   84.4225   13.6791 H       1  UNL1        0.1581
     15 C          63.2874   83.3593   12.3872 C.ar    1  UNL1        0.2324
     16 C          62.6665   82.0556   11.9813 C.ar    1  UNL1        0.0742
     17 C          63.4024   81.5466   10.7774 C.ar    1  UNL1        0.1025
     18 C          63.1133   80.2722   10.0410 C.3     1  UNL1        0.0557
     19 N          64.4782   82.5358   10.4392 N.ar    1  UNL1       -0.0798
     20 O          64.4071   83.6561   11.4341 O.2     1  UNL1       -0.3384
     21 O          64.1155   91.5726   15.3637 O.3     1  UNL1       -0.4534
     22 C          66.4226   93.0449   10.6990 C.ar    1  UNL1        0.1739
     23 C          67.4263   93.3451   11.7725 C.ar    1  UNL1        0.0592
     24 C          67.1005   93.0521   13.2071 C.ar    1  UNL1        0.0875
     25 N          68.1042   93.3523   14.2806 N.ar    1  UNL1       -0.2435
     26 C          67.7784   93.0593   15.7151 C.ar    1  UNL1        0.1020
     27 C          66.4488   92.4660   16.0762 C.ar    1  UNL1        0.0581
     28 C          65.4451   92.1658   15.0027 C.ar    1  UNL1        0.1483
     29 C          65.7710   92.4589   13.5682 C.ar    1  UNL1        0.0554
     30 C          64.7672   92.1587   12.4946 C.ar    1  UNL1        0.0446
     31 C          65.0931   92.4517   11.0601 C.ar    1  UNL1        0.1726
     32 C          67.7579   94.3944    8.9253 C.3     1  UNL1        0.2526
     33 O          66.7485   93.3380    9.2644 O.3     1  UNL1       -0.4683
     34 O          64.0894   92.1515    9.9865 O.3     1  UNL1       -0.4684
     35 C          63.0418   91.1017   10.2115 C.3     1  UNL1        0.2526
@<TRIPOS>BOND
     1    32    33    1
     2    33    22    1
     3    22    23   ar
     4    23    24   ar
     5    24    25   ar
     6    25    26   ar
     7    26    27   ar
     8    27    28   ar
     9    28    21    1
    10    21     1    1
    11     1     2   ar
    12     2     3   ar
    13     3     4   ar
    14     4     5   ar
    15     5    11    1
    16    11    12    2
    17    11    13   am
    18    13    15    1
    19    15    16   ar
    20    16    17   ar
    21    17    18    1
    22    17    19   ar
    23    19    20   ar
    24     5     6   ar
    25     6     7   ar
    26     7     8   ar
    27     8     9   ar
    28     9    10   ar
    29    28    29   ar
    30    29    30   ar
    31    30    31   ar
    32    31    34    1
    33    34    35    1
    34    31    22   ar
    35    29    24   ar
    36    10     1   ar
    37     9     4   ar
    38    20    15   ar
    39    13    14    1
@<TRIPOS>MOLECULE
*****
 35 39 0 0 0
SMALL
GASTEIGER

@<TRIPOS>ATOM
      1 C          62.6645   90.4967   11.0930 C.ar    1  UNL1        0.1453
      2 C          63.2758   89.3628   11.8616 C.ar    1  UNL1        0.0375
      3 C          62.9119   87.9469   11.5258 C.ar    1  UNL1        0.0033
      4 C          61.9367   87.6649   10.4215 C.ar    1  UNL1        0.0046
      5 C          61.5728   86.2489   10.0857 C.ar    1  UNL1        0.0537
      6 C          60.5976   85.9669    8.9814 C.ar    1  UNL1        0.0045
      7 C          59.9863   87.1008    8.2129 C.ar    1  UNL1        0.0001
      8 C          60.3502   88.5167    8.5487 C.ar    1  UNL1        0.0001
      9 C          61.3254   88.7987    9.6530 C.ar    1  UNL1        0.0032
     10 C          61.6893   90.2147    9.9887 C.ar    1  UNL1        0.0375
     11 C          62.1841   85.1150   10.8542 C.2     1  UNL1        0.2517
     12 O          63.0273   84.0970   10.1454 O.2     1  UNL1       -0.2697
     13 N          61.9521   84.9992   12.3316 N.am    1  UNL1       -0.2497
     14 H          61.3986   85.6674   12.7969 H       1  UNL1        0.1581
     15 C          62.5634   83.8653   13.1002 C.ar    1  UNL1        0.2324
     16 C          62.4000   82.4054   12.7971 C.ar    1  UNL1        0.0742
     17 C          63.1810   81.6301   13.8164 C.ar    1  UNL1        0.1025
     18 C          63.2958   80.1363   13.8898 C.3     1  UNL1        0.0557
     19 N          63.8271   82.6109   14.7495 N.ar    1  UNL1       -0.0798
     20 O          63.4454   83.9923   14.3069 O.2     1  UNL1       -0.3384
     21 O          63.0284   91.9126   11.4288 O.3     1  UNL1       -0.4534
     22 C          66.8130   92.3248   15.2703 C.ar    1  UNL1        0.1739
     23 C          67.4697   92.7534   13.9916 C.ar    1  UNL1        0.0592
     24 C          66.6877   92.7575   12.7115 C.ar    1  UNL1        0.0875
     25 N          67.3444   93.1860   11.4329 N.ar    1  UNL1       -0.2435
     26 C          66.5625   93.1901   10.1529 C.ar    1  UNL1        0.1020
     27 C          65.1238   92.7657   10.1515 C.ar    1  UNL1        0.0581
     28 C          64.4671   92.3371   11.4302 C.ar    1  UNL1        0.1483
     29 C          65.2490   92.3330   12.7102 C.ar    1  UNL1        0.0554
     30 C          64.5923   91.9044   13.9889 C.ar    1  UNL1        0.0446
     31 C          65.3743   91.9003   15.2689 C.ar    1  UNL1        0.1726
     32 C          69.0924   92.4013   16.5148 C.3     1  UNL1        0.2526
     33 O          67.5950   92.3207   16.5504 O.3     1  UNL1       -0.4683
     34 O          64.7176   91.4717   16.5477 O.3     1  UNL1       -0.4684
     35 C          63.5263   90.5610   16.5104 C.3     1  UNL1        0.2526
@<TRIPOS>BOND
     1    32    33    1
     2    33    22    1
     3    22    23   ar
     4    23    24   ar
     5    24    25   ar
     6    25    26   ar
     7    26    27   ar
     8    27    28   ar
     9    28    21    1
    10    21     1    1
    11     1     2   ar
    12     2     3   ar
    13     3     4   ar
    14     4     5   ar
    15     5    11    1
    16    11    12    2
    17    11    13   am
    18    13    15    1
    19    15    16   ar
    20    16    17   ar
    21    17    18    1
    22    17    19   ar
    23    19    20   ar
    24     5     6   ar
    25     6     7   ar
    26     7     8   ar
    27     8     9   ar
    28     9    10   ar
    29    28    29   ar
    30    29    30   ar
    31    30    31   ar
    32    31    34    1
    33    34    35    1
    34    31    22   ar
    35    29    24   ar
    36    10     1   ar
    37     9     4   ar
    38    20    15   ar
    39    13    14    1
@<TRIPOS>MOLECULE
*****
 35 39 0 0 0
SMALL
GASTEIGER

@<TRIPOS>ATOM
      1 C          64.1188   89.6421   14.4244 C.ar    1  UNL1        0.1453
      2 C          63.3662   89.8563   13.1446 C.ar    1  UNL1        0.0375
      3 C          62.9280   88.6783   12.3260 C.ar    1  UNL1        0.0033
      4 C          63.2424   87.2860   12.7871 C.ar    1  UNL1        0.0046
      5 C          62.8042   86.1079   11.9685 C.ar    1  UNL1        0.0537
      6 C          63.1187   84.7156   12.4296 C.ar    1  UNL1        0.0045
      7 C          63.8713   84.5014   13.7094 C.ar    1  UNL1        0.0001
      8 C          64.3095   85.6794   14.5280 C.ar    1  UNL1        0.0001
      9 C          63.9950   87.0717   14.0668 C.ar    1  UNL1        0.0032
     10 C          64.4333   88.2498   14.8855 C.ar    1  UNL1        0.0375
     11 C          62.0516   86.3221   10.6888 C.2     1  UNL1        0.2517
     12 O          62.3938   85.5129    9.4730 O.2     1  UNL1       -0.2697
     13 N          60.9569   87.3455   10.6249 N.am    1  UNL1       -0.2497
     14 H          60.7324   87.8766   11.4229 H       1  UNL1        0.1581
     15 C          60.2043   87.5598    9.3451 C.ar    1  UNL1        0.2324
     16 C          60.2097   88.8111    8.5180 C.ar    1  UNL1        0.0742
     17 C          59.3229   88.5850    7.3296 C.ar    1  UNL1        0.1025
     18 C          59.0393   89.5760    6.2398 C.3     1  UNL1        0.0557
     19 N          58.7693   87.1939    7.4222 N.ar    1  UNL1       -0.0798
     20 O          59.3140   86.5603    8.6679 O.2     1  UNL1       -0.3384
     21 O          64.5570   90.8202   15.2429 O.3     1  UNL1       -0.4534
     22 C          66.3538   93.3430   10.8093 C.ar    1  UNL1        0.1739
     23 C          67.4472   93.4643   11.8289 C.ar    1  UNL1        0.0592
     24 C          67.2714   92.8639   13.1923 C.ar    1  UNL1        0.0875
     25 N          68.3648   92.9852   14.2119 N.ar    1  UNL1       -0.2435
     26 C          68.1890   92.3849   15.5752 C.ar    1  UNL1        0.1020
     27 C          66.9197   91.6632   15.9189 C.ar    1  UNL1        0.0581
     28 C          65.8263   91.5419   14.8993 C.ar    1  UNL1        0.1483
     29 C          66.0021   92.1422   13.5360 C.ar    1  UNL1        0.0554
     30 C          64.9087   92.0209   12.5163 C.ar    1  UNL1        0.0446
     31 C          65.0845   92.6213   11.1530 C.ar    1  UNL1        0.1726
     32 C          67.8234   94.6087    9.0806 C.3     1  UNL1        0.2526
     33 O          66.5296   93.9433    9.4459 O.3     1  UNL1       -0.4683
     34 O          63.9910   92.5000   10.1333 O.3     1  UNL1       -0.4684
     35 C          63.1556   91.2556   10.0739 C.3     1  UNL1        0.2526
@<TRIPOS>BOND
     1    32    33    1
     2    33    22    1
     3    22    23   ar
     4    23    24   ar
     5    24    25   ar
     6    25    26   ar
     7    26    27   ar
     8    27    28   ar
     9    28    21    1
    10    21     1    1
    11     1     2   ar
    12     2     3   ar
    13     3     4   ar
    14     4     5   ar
    15     5    11    1
    16    11    12    2
    17    11    13   am
    18    13    15    1
    19    15    16   ar
    20    16    17   ar
    21    17    18    1
    22    17    19   ar
    23    19    20   ar
    24     5     6   ar
    25     6     7   ar
    26     7     8   ar
    27     8     9   ar
    28     9    10   ar
    29    28    29   ar
    30    29    30   ar
    31    30    31   ar
    32    31    34    1
    33    34    35    1
    34    31    22   ar
    35    29    24   ar
    36    10     1   ar
    37     9     4   ar
    38    20    15   ar
    39    13    14    1
@<TRIPOS>MOLECULE
*****
 35 39 0 0 0
SMALL
GASTEIGER

@<TRIPOS>ATOM
      1 C          64.1366   89.9592   14.8917 C.ar    1  UNL1        0.1453
      2 C          64.3708   88.8211   13.9430 C.ar    1  UNL1        0.0375
      3 C          64.0916   87.4129   14.3776 C.ar    1  UNL1        0.0033
      4 C          63.5782   87.1427   15.7608 C.ar    1  UNL1        0.0046
      5 C          63.2990   85.7344   16.1954 C.ar    1  UNL1        0.0537
      6 C          62.7856   85.4641   17.5787 C.ar    1  UNL1        0.0045
      7 C          62.5514   86.6022   18.5274 C.ar    1  UNL1        0.0001
      8 C          62.8306   88.0104   18.0928 C.ar    1  UNL1        0.0001
      9 C          63.3440   88.2807   16.7095 C.ar    1  UNL1        0.0032
     10 C          63.6232   89.6890   16.2750 C.ar    1  UNL1        0.0375
     11 C          63.5332   84.5964   15.2467 C.2     1  UNL1        0.2517
     12 O          64.9171   84.3135   14.7418 O.2     1  UNL1       -0.2697
     13 N          62.3835   83.7412   14.8029 N.am    1  UNL1       -0.2497
     14 H          61.4753   83.9269   15.1343 H       1  UNL1        0.1581
     15 C          62.6177   82.6032   13.8542 C.ar    1  UNL1        0.2324
     16 C          62.7731   82.7133   12.3663 C.ar    1  UNL1        0.0742
     17 C          62.9890   81.3334   11.8194 C.ar    1  UNL1        0.1025
     18 C          63.1914   80.9788   10.3760 C.3     1  UNL1        0.0557
     19 N          62.9670   80.3703   12.9692 N.ar    1  UNL1       -0.0798
     20 O          62.7375   81.1551   14.2268 O.2     1  UNL1       -0.3384
     21 O          64.4157   91.3675   14.4572 O.3     1  UNL1       -0.4534
     22 C          61.4625   90.0187   10.1318 C.ar    1  UNL1        0.1739
     23 C          62.5574   90.9106    9.6262 C.ar    1  UNL1        0.0592
     24 C          63.5695   91.4708   10.5812 C.ar    1  UNL1        0.0875
     25 N          64.6644   92.3627   10.0756 N.ar    1  UNL1       -0.2435
     26 C          65.6764   92.9229   11.0306 C.ar    1  UNL1        0.1020
     27 C          65.5935   92.5911   12.4911 C.ar    1  UNL1        0.0581
     28 C          64.4986   91.6992   12.9967 C.ar    1  UNL1        0.1483
     29 C          63.4866   91.1390   12.0417 C.ar    1  UNL1        0.0554
     30 C          62.3916   90.2471   12.5472 C.ar    1  UNL1        0.0446
     31 C          61.3796   89.6869   11.5923 C.ar    1  UNL1        0.1726
     32 C          60.4585   87.9948    8.8488 C.3     1  UNL1        0.2526
     33 O          60.4504   89.4584    9.1768 O.3     1  UNL1       -0.4683
     34 O          60.2846   88.7950   12.0978 O.3     1  UNL1       -0.4684
     35 C          58.9215   89.3599   12.3677 C.3     1  UNL1        0.2526
@<TRIPOS>BOND
     1    32    33    1
     2    33    22    1
     3    22    23   ar
     4    23    24   ar
     5    24    25   ar
     6    25    26   ar
     7    26    27   ar
     8    27    28   ar
     9    28    21    1
    10    21     1    1
    11     1     2   ar
    12     2     3   ar
    13     3     4   ar
    14     4     5   ar
    15     5    11    1
    16    11    12    2
    17    11    13   am
    18    13    15    1
    19    15    16   ar
    20    16    17   ar
    21    17    18    1
    22    17    19   ar
    23    19    20   ar
    24     5     6   ar
    25     6     7   ar
    26     7     8   ar
    27     8     9   ar
    28     9    10   ar
    29    28    29   ar
    30    29    30   ar
    31    30    31   ar
    32    31    34    1
    33    34    35    1
    34    31    22   ar
    35    29    24   ar
    36    10     1   ar
    37     9     4   ar
    38    20    15   ar
    39    13    14    1
@<TRIPOS>MOLECULE
*****
 35 39 0 0 0
SMALL
GASTEIGER

@<TRIPOS>ATOM
      1 C          63.2417   89.4453   12.5209 C.ar    1  UNL1        0.1453
      2 C          63.3482   90.5637   11.5269 C.ar    1  UNL1        0.0375
      3 C          64.2750   91.7137   11.7885 C.ar    1  UNL1        0.0033
      4 C          65.0952   91.7455   13.0439 C.ar    1  UNL1        0.0046
      5 C          66.0219   92.8957   13.3054 C.ar    1  UNL1        0.0537
      6 C          66.8422   92.9275   14.5609 C.ar    1  UNL1        0.0045
      7 C          66.7356   91.8091   15.5549 C.ar    1  UNL1        0.0001
      8 C          65.8089   90.6590   15.2934 C.ar    1  UNL1        0.0001
      9 C          64.9887   90.6272   14.0379 C.ar    1  UNL1        0.0032
     10 C          64.0619   89.4770   13.7764 C.ar    1  UNL1        0.0375
     11 C          66.1284   94.0140   12.3115 C.2     1  UNL1        0.2517
     12 O          66.3811   95.4153   12.7833 O.2     1  UNL1       -0.2697
     13 N          65.9823   93.7310   10.8457 N.am    1  UNL1       -0.2497
     14 H          65.8165   92.8113   10.5361 H       1  UNL1        0.1581
     15 C          66.0888   94.8494    9.8517 C.ar    1  UNL1        0.2324
     16 C          67.1974   95.0454    8.8605 C.ar    1  UNL1        0.0742
     17 C          66.8991   96.2852    8.0706 C.ar    1  UNL1        0.1025
     18 C          67.7453   96.8548    6.9707 C.3     1  UNL1        0.0557
     19 N          65.6060   96.8554    8.5735 N.ar    1  UNL1       -0.0798
     20 O          65.1053   95.9680    9.6743 O.2     1  UNL1       -0.3384
     21 O          62.3150   88.2952   12.2594 O.3     1  UNL1       -0.4534
     22 C          62.0985   85.1575    7.8597 C.ar    1  UNL1        0.1739
     23 C          61.0278   86.1933    7.6850 C.ar    1  UNL1        0.0592
     24 C          60.8141   87.2367    8.7413 C.ar    1  UNL1        0.0875
     25 N          59.7434   88.2725    8.5667 N.ar    1  UNL1       -0.2435
     26 C          59.5298   89.3158    9.6230 C.ar    1  UNL1        0.1020
     27 C          60.3870   89.3234   10.8539 C.ar    1  UNL1        0.0581
     28 C          61.4578   88.2876   11.0285 C.ar    1  UNL1        0.1483
     29 C          61.6713   87.2443    9.9722 C.ar    1  UNL1        0.0554
     30 C          62.7422   86.2084   10.1468 C.ar    1  UNL1        0.0446
     31 C          62.9557   85.1650    9.0906 C.ar    1  UNL1        0.1726
     32 C          61.5971   84.2200    5.4890 C.3     1  UNL1        0.2526
     33 O          62.3121   84.1141    6.8033 O.3     1  UNL1       -0.4683
     34 O          64.0266   84.1292    9.2652 O.3     1  UNL1       -0.4684
     35 C          63.8906   83.0821   10.3306 C.3     1  UNL1        0.2526
@<TRIPOS>BOND
     1    32    33    1
     2    33    22    1
     3    22    23   ar
     4    23    24   ar
     5    24    25   ar
     6    25    26   ar
     7    26    27   ar
     8    27    28   ar
     9    28    21    1
    10    21     1    1
    11     1     2   ar
    12     2     3   ar
    13     3     4   ar
    14     4     5   ar
    15     5    11    1
    16    11    12    2
    17    11    13   am
    18    13    15    1
    19    15    16   ar
    20    16    17   ar
    21    17    18    1
    22    17    19   ar
    23    19    20   ar
    24     5     6   ar
    25     6     7   ar
    26     7     8   ar
    27     8     9   ar
    28     9    10   ar
    29    28    29   ar
    30    29    30   ar
    31    30    31   ar
    32    31    34    1
    33    34    35    1
    34    31    22   ar
    35    29    24   ar
    36    10     1   ar
    37     9     4   ar
    38    20    15   ar
    39    13    14    1
@<TRIPOS>MOLECULE
*****
 35 39 0 0 0
SMALL
GASTEIGER

@<TRIPOS>ATOM
      1 C          63.6678   90.2278   14.1624 C.ar    1  UNL1        0.1453
      2 C          64.1971   88.8243   14.1673 C.ar    1  UNL1        0.0375
      3 C          63.5919   87.7913   13.2637 C.ar    1  UNL1        0.0033
      4 C          62.4573   88.1618   12.3551 C.ar    1  UNL1        0.0046
      5 C          61.8521   87.1287   11.4515 C.ar    1  UNL1        0.0537
      6 C          60.7175   87.4992   10.5429 C.ar    1  UNL1        0.0045
      7 C          60.1882   88.9028   10.5380 C.ar    1  UNL1        0.0001
      8 C          60.7934   89.9357   11.4416 C.ar    1  UNL1        0.0001
      9 C          61.9280   89.5653   12.3502 C.ar    1  UNL1        0.0032
     10 C          62.5333   90.5983   13.2539 C.ar    1  UNL1        0.0375
     11 C          62.3814   85.7253   11.4564 C.2     1  UNL1        0.2517
     12 O          62.8568   85.0985   10.1793 O.2     1  UNL1       -0.2697
     13 N          62.4353   84.9486   12.7385 N.am    1  UNL1       -0.2497
     14 H          62.1232   85.3600   13.5768 H       1  UNL1        0.1581
     15 C          62.9646   83.5451   12.7435 C.ar    1  UNL1        0.2324
     16 C          62.1696   82.3039   13.0216 C.ar    1  UNL1        0.0742
     17 C          63.0955   81.1281   12.9213 C.ar    1  UNL1        0.1025
     18 C          62.7201   79.6902   13.1252 C.3     1  UNL1        0.0557
     19 N          64.4629   81.6426   12.5811 N.ar    1  UNL1       -0.0798
     20 O          64.3820   83.1363   12.4713 O.2     1  UNL1       -0.3384
     21 O          64.2731   91.2608   15.0661 O.3     1  UNL1       -0.4534
     22 C          66.8540   93.0237   10.6523 C.ar    1  UNL1        0.1739
     23 C          67.8449   93.1082   11.7753 C.ar    1  UNL1        0.0592
     24 C          67.4474   92.6886   13.1595 C.ar    1  UNL1        0.0875
     25 N          68.4383   92.7731   14.2824 N.ar    1  UNL1       -0.2435
     26 C          68.0407   92.3535   15.6665 C.ar    1  UNL1        0.1020
     27 C          66.6524   91.8494   15.9277 C.ar    1  UNL1        0.0581
     28 C          65.6615   91.7649   14.8048 C.ar    1  UNL1        0.1483
     29 C          66.0590   92.1845   13.4207 C.ar    1  UNL1        0.0554
     30 C          65.0681   92.1000   12.2977 C.ar    1  UNL1        0.0446
     31 C          65.4656   92.5196   10.9136 C.ar    1  UNL1        0.1726
     32 C          67.6005   94.8754    8.9897 C.3     1  UNL1        0.2526
     33 O          67.2515   93.4433    9.2681 O.3     1  UNL1       -0.4683
     34 O          64.4747   92.4351    9.7906 O.3     1  UNL1       -0.4684
     35 C          63.3078   91.4978    9.8890 C.3     1  UNL1        0.2526
@<TRIPOS>BOND
     1    32    33    1
     2    33    22    1
     3    22    23   ar
     4    23    24   ar
     5    24    25   ar
     6    25    26   ar
     7    26    27   ar
     8    27    28   ar
     9    28    21    1
    10    21     1    1
    11     1     2   ar
    12     2     3   ar
    13     3     4   ar
    14     4     5   ar
    15     5    11    1
    16    11    12    2
    17    11    13   am
    18    13    15    1
    19    15    16   ar
    20    16    17   ar
    21    17    18    1
    22    17    19   ar
    23    19    20   ar
    24     5     6   ar
    25     6     7   ar
    26     7     8   ar
    27     8     9   ar
    28     9    10   ar
    29    28    29   ar
    30    29    30   ar
    31    30    31   ar
    32    31    34    1
    33    34    35    1
    34    31    22   ar
    35    29    24   ar
    36    10     1   ar
    37     9     4   ar
    38    20    15   ar
    39    13    14    1
