@<TRIPOS>MOLECULE
*****
 33 36 0 0 0
SMALL
GASTEIGER

@<TRIPOS>ATOM
      1 N          62.6623   84.8791   11.9497 N.pl3   1  UNL1       -0.2736
      2 C          63.3618   85.8387   12.8661 C.3     1  UNL1        0.1082
      3 C          63.1390   87.2263   12.3419 C.3     1  UNL1        0.1550
      4 C          63.5903   88.5696   12.8338 C.2     1  UNL1        0.2922
      5 O          64.4276   88.6716   14.0742 O.2     1  UNL1       -0.2563
      6 N          63.2043   89.8108   12.0851 N.am    1  UNL1       -0.1448
      7 C          63.6556   91.1542   12.5771 C.3     1  UNL1        0.2159
      8 C          62.3671   89.7088   10.8448 C.2     1  UNL1        0.3732
      9 N          61.9811   90.9501   10.0962 N.pl3   1  UNL1       -0.2512
     10 N          61.9158   88.3656   10.3529 N.2     1  UNL1       -0.1015
     11 C          62.3017   87.1243   11.1014 C.3     1  UNL1        0.1995
     12 C          62.0071   85.6736   10.8591 C.3     1  UNL1        0.1382
     13 H          62.2773   91.8318   10.4190 H       1  UNL1        0.2412
     14 H          61.4316   90.8831    9.2821 H       1  UNL1        0.2412
     15 C          61.4651   86.8669    9.8833 C.ar    1  UNL1        0.0728
     16 C          60.0495   87.3598    9.8278 C.ar    1  UNL1        0.1416
     17 F          59.4705   88.1102   10.9905 F       1  UNL1       -0.2043
     18 C          59.2129   87.1024    8.6097 C.ar    1  UNL1        0.0319
     19 C          59.7919   86.3520    7.4471 C.ar    1  UNL1        0.0343
     20 C          61.2076   85.8591    7.5026 C.ar    1  UNL1        0.1673
     21 F          61.7865   85.1088    6.3399 F       1  UNL1       -0.2018
     22 C          62.0442   86.1165    8.7207 C.ar    1  UNL1        0.1687
     23 F          63.4598   85.6236    8.7762 F       1  UNL1       -0.2019
     24 C          63.0854   81.0179   11.1357 C.ar    1  UNL1        0.2569
     25 N          63.1231   82.5101   10.9876 N.ar    1  UNL1       -0.1768
     26 C          62.6245   83.3869   12.0979 C.ar    1  UNL1        0.2226
     27 N          62.0882   82.7715   13.3563 N.ar    1  UNL1       -0.2155
     28 C          62.0505   81.2793   13.5044 C.ar    1  UNL1        0.0942
     29 C          61.5142   80.6639   14.7628 C.3     1  UNL1        0.0548
     30 C          62.5491   80.4025   12.3941 C.ar    1  UNL1        0.2065
     31 F          62.5113   78.9103   12.5423 F       1  UNL1       -0.1980
     32 C          62.6866   79.0932    9.4367 C.3     1  UNL1        0.2543
     33 O          63.5839   80.1412   10.0254 O.3     1  UNL1       -0.4545
@<TRIPOS>BOND
     1    32    33    1
     2    33    24    1
     3    24    25   ar
     4    25    26   ar
     5    26     1    1
     6     1     2    1
     7     3     2    1
     8     3     4    1
     9     4     5    2
    10     4     6   am
    11     6     7    1
    12     6     8    1
    13     8     9    1
    14     8    10    2
    15    10    11    1
    16    11    15    1
    17    15    16   ar
    18    16    17    1
    19    16    18   ar
    20    18    19   ar
    21    19    20   ar
    22    20    21    1
    23    20    22   ar
    24    22    23    1
    25    11    12    1
    26    26    27   ar
    27    27    28   ar
    28    28    29    1
    29    28    30   ar
    30    30    31    1
    31    30    24   ar
    32    12     1    1
    33    11     3    1
    34    22    15   ar
    35     9    13    1
    36     9    14    1
@<TRIPOS>MOLECULE
*****
 33 36 0 0 0
SMALL
GASTEIGER

@<TRIPOS>ATOM
      1 N          62.5712   84.8277   11.9513 N.pl3   1  UNL1       -0.2736
      2 C          63.2880   85.7717   12.8706 C.3     1  UNL1        0.1082
      3 C          63.1087   87.1626   12.3385 C.3     1  UNL1        0.1550
      4 C          63.5921   88.4950   12.8293 C.2     1  UNL1        0.2922
      5 O          64.4198   88.5794   14.0775 O.2     1  UNL1       -0.2563
      6 N          63.2479   89.7432   12.0718 N.am    1  UNL1       -0.1448
      7 C          63.7314   91.0757   12.5626 C.3     1  UNL1        0.2159
      8 C          62.4204   89.6589   10.8237 C.2     1  UNL1        0.3732
      9 N          62.0761   90.9070   10.0662 N.pl3   1  UNL1       -0.2512
     10 N          61.9369   88.3264   10.3329 N.2     1  UNL1       -0.1015
     11 C          62.2811   87.0783   11.0903 C.3     1  UNL1        0.1995
     12 C          61.9489   85.6352   10.8510 C.3     1  UNL1        0.1382
     13 H          62.3934   91.7816   10.3883 H       1  UNL1        0.2412
     14 H          61.5329   90.8517    9.2470 H       1  UNL1        0.2412
     15 C          61.4496   86.8387    9.8650 C.ar    1  UNL1        0.0728
     16 C          60.0391   87.3455    9.8049 C.ar    1  UNL1        0.1416
     17 F          59.4600   88.0920   10.9701 F       1  UNL1       -0.2043
     18 C          59.2076   87.1059    8.5797 C.ar    1  UNL1        0.0319
     19 C          59.7867   86.3595    7.4146 C.ar    1  UNL1        0.0343
     20 C          61.1972   85.8527    7.4747 C.ar    1  UNL1        0.1673
     21 F          61.7761   85.1063    6.3095 F       1  UNL1       -0.2018
     22 C          62.0287   86.0923    8.6999 C.ar    1  UNL1        0.1687
     23 F          63.4392   85.5854    8.7600 F       1  UNL1       -0.2019
     24 C          61.7211   81.2531   13.4514 C.ar    1  UNL1        0.2569
     25 N          61.8016   82.7431   13.2974 N.ar    1  UNL1       -0.1768
     26 C          62.4908   83.3378   12.1052 C.ar    1  UNL1        0.2226
     27 N          63.0995   82.4426   11.0669 N.ar    1  UNL1       -0.2155
     28 C          63.0191   80.9527   11.2210 C.ar    1  UNL1        0.0942
     29 C          63.6278   80.0575   10.1827 C.3     1  UNL1        0.0548
     30 C          62.3299   80.3579   12.4131 C.ar    1  UNL1        0.2065
     31 F          62.2495   78.8680   12.5671 F       1  UNL1       -0.1980
     32 C          59.6541   80.0825   14.5035 C.3     1  UNL1        0.2543
     33 O          61.0320   80.6585   14.6436 O.3     1  UNL1       -0.4545
@<TRIPOS>BOND
     1    32    33    1
     2    33    24    1
     3    24    25   ar
     4    25    26   ar
     5    26     1    1
     6     1     2    1
     7     3     2    1
     8     3     4    1
     9     4     5    2
    10     4     6   am
    11     6     7    1
    12     6     8    1
    13     8     9    1
    14     8    10    2
    15    10    11    1
    16    11    15    1
    17    15    16   ar
    18    16    17    1
    19    16    18   ar
    20    18    19   ar
    21    19    20   ar
    22    20    21    1
    23    20    22   ar
    24    22    23    1
    25    11    12    1
    26    26    27   ar
    27    27    28   ar
    28    28    29    1
    29    28    30   ar
    30    30    31    1
    31    30    24   ar
    32    12     1    1
    33    11     3    1
    34    22    15   ar
    35     9    13    1
    36     9    14    1
@<TRIPOS>MOLECULE
*****
 33 36 0 0 0
SMALL
GASTEIGER

@<TRIPOS>ATOM
      1 N          63.5760   86.9968   12.9337 N.pl3   1  UNL1       -0.2736
      2 C          63.7795   86.0602   14.0875 C.3     1  UNL1        0.1082
      3 C          63.4296   84.6759   13.6279 C.3     1  UNL1        0.1550
      4 C          63.4389   83.3519   14.3330 C.2     1  UNL1        0.2922
      5 O          63.8587   83.2708   15.7708 O.2     1  UNL1       -0.2563
      6 N          63.0284   82.1091   13.6002 N.am    1  UNL1       -0.1448
      7 C          63.0378   80.7851   14.3053 C.3     1  UNL1        0.2159
      8 C          62.6087   82.1902   12.1625 C.2     1  UNL1        0.3732
      9 N          62.1982   80.9474   11.4297 N.pl3   1  UNL1       -0.2512
     10 N          62.5993   83.5141   11.4574 N.2     1  UNL1       -0.1015
     11 C          63.0097   84.7570   12.1901 C.3     1  UNL1        0.1995
     12 C          63.1003   86.1914   11.7611 C.3     1  UNL1        0.1382
     13 H          62.2043   80.0784   11.8924 H       1  UNL1        0.2412
     14 H          61.9227   81.0006   10.4860 H       1  UNL1        0.2412
     15 C          62.6164   84.9925   10.7619 C.ar    1  UNL1        0.0728
     16 C          63.4452   84.4184    9.6513 C.ar    1  UNL1        0.1416
     17 F          64.6673   83.6087    9.9689 F       1  UNL1       -0.2043
     18 C          63.0519   84.6540    8.2231 C.ar    1  UNL1        0.0319
     19 C          61.8298   85.4637    7.9055 C.ar    1  UNL1        0.0343
     20 C          61.0010   86.0378    9.0162 C.ar    1  UNL1        0.1673
     21 F          59.7790   86.8475    8.6985 F       1  UNL1       -0.2018
     22 C          61.3943   85.8022   10.4444 C.ar    1  UNL1        0.1687
     23 F          60.5655   86.3764   11.5550 F       1  UNL1       -0.2019
     24 C          64.6374   90.6134   14.1766 C.ar    1  UNL1        0.2569
     25 N          64.4057   89.1314   14.1605 N.ar    1  UNL1       -0.1768
     26 C          63.8076   88.4788   12.9496 C.ar    1  UNL1        0.2226
     27 N          63.4410   89.3081   11.7547 N.ar    1  UNL1       -0.2155
     28 C          63.6726   90.7900   11.7708 C.ar    1  UNL1        0.0942
     29 C          63.3060   91.6194   10.5759 C.3     1  UNL1        0.0548
     30 C          64.2708   91.4427   12.9817 C.ar    1  UNL1        0.2065
     31 F          64.5023   92.9246   12.9976 F       1  UNL1       -0.1980
     32 C          66.5309   92.0136   15.2738 C.3     1  UNL1        0.2543
     33 O          65.2355   91.2659   15.3875 O.3     1  UNL1       -0.4545
@<TRIPOS>BOND
     1    32    33    1
     2    33    24    1
     3    24    25   ar
     4    25    26   ar
     5    26     1    1
     6     1     2    1
     7     3     2    1
     8     3     4    1
     9     4     5    2
    10     4     6   am
    11     6     7    1
    12     6     8    1
    13     8     9    1
    14     8    10    2
    15    10    11    1
    16    11    15    1
    17    15    16   ar
    18    16    17    1
    19    16    18   ar
    20    18    19   ar
    21    19    20   ar
    22    20    21    1
    23    20    22   ar
    24    22    23    1
    25    11    12    1
    26    26    27   ar
    27    27    28   ar
    28    28    29    1
    29    28    30   ar
    30    30    31    1
    31    30    24   ar
    32    12     1    1
    33    11     3    1
    34    22    15   ar
    35     9    13    1
    36     9    14    1
@<TRIPOS>MOLECULE
*****
 33 36 0 0 0
SMALL
GASTEIGER

@<TRIPOS>ATOM
      1 N          62.5690   84.6926   11.9140 N.pl3   1  UNL1       -0.2736
      2 C          63.2001   85.6534   12.8776 C.3     1  UNL1        0.1082
      3 C          63.0636   87.0353   12.3105 C.3     1  UNL1        0.1550
      4 C          63.4983   88.3771   12.8210 C.2     1  UNL1        0.2922
      5 O          64.2137   88.4839   14.1351 O.2     1  UNL1       -0.2563
      6 N          63.2176   89.6122   12.0173 N.am    1  UNL1       -0.1448
      7 C          63.6524   90.9541   12.5278 C.3     1  UNL1        0.2159
      8 C          62.5023   89.5055   10.7033 C.2     1  UNL1        0.3732
      9 N          62.2216   90.7406    9.8996 N.pl3   1  UNL1       -0.2512
     10 N          62.0675   88.1637   10.1928 N.2     1  UNL1       -0.1015
     11 C          62.3482   86.9286   10.9964 C.3     1  UNL1        0.1995
     12 C          62.0425   85.4807   10.7513 C.3     1  UNL1        0.1382
     13 H          62.5069   91.6213   10.2346 H       1  UNL1        0.2412
     14 H          61.7520   90.6705    9.0371 H       1  UNL1        0.2412
     15 C          61.6274   86.6670    9.7073 C.ar    1  UNL1        0.0728
     16 C          62.3180   85.9302    8.5981 C.ar    1  UNL1        0.1416
     17 F          63.7293   85.4551    8.7780 F       1  UNL1       -0.2043
     18 C          61.5973   85.6685    7.3089 C.ar    1  UNL1        0.0319
     19 C          60.1859   86.1436    7.1289 C.ar    1  UNL1        0.0343
     20 C          59.4953   86.8804    8.2381 C.ar    1  UNL1        0.1673
     21 F          58.0840   87.3555    8.0580 F       1  UNL1       -0.2018
     22 C          60.2161   87.1421    9.5273 C.ar    1  UNL1        0.1687
     23 F          59.5255   87.8788   10.6365 F       1  UNL1       -0.2019
     24 C          61.7004   81.1386   13.4519 C.ar    1  UNL1        0.2569
     25 N          61.7894   82.6264   13.2825 N.ar    1  UNL1       -0.1768
     26 C          62.4801   83.2048   12.0832 C.ar    1  UNL1        0.2226
     27 N          63.0817   82.2955   11.0531 N.ar    1  UNL1       -0.2155
     28 C          62.9927   80.8077   11.2224 C.ar    1  UNL1        0.0942
     29 C          63.5944   79.8984   10.1924 C.3     1  UNL1        0.0548
     30 C          62.3021   80.2292   12.4218 C.ar    1  UNL1        0.2065
     31 F          62.2131   78.7415   12.5910 F       1  UNL1       -0.1980
     32 C          59.6053   80.0470   14.5330 C.3     1  UNL1        0.2543
     33 O          61.0098   80.5602   14.6512 O.3     1  UNL1       -0.4545
@<TRIPOS>BOND
     1    32    33    1
     2    33    24    1
     3    24    25   ar
     4    25    26   ar
     5    26     1    1
     6     1     2    1
     7     3     2    1
     8     3     4    1
     9     4     5    2
    10     4     6   am
    11     6     7    1
    12     6     8    1
    13     8     9    1
    14     8    10    2
    15    10    11    1
    16    11    15    1
    17    15    16   ar
    18    16    17    1
    19    16    18   ar
    20    18    19   ar
    21    19    20   ar
    22    20    21    1
    23    20    22   ar
    24    22    23    1
    25    11    12    1
    26    26    27   ar
    27    27    28   ar
    28    28    29    1
    29    28    30   ar
    30    30    31    1
    31    30    24   ar
    32    12     1    1
    33    11     3    1
    34    22    15   ar
    35     9    13    1
    36     9    14    1
@<TRIPOS>MOLECULE
*****
 33 36 0 0 0
SMALL
GASTEIGER

@<TRIPOS>ATOM
      1 N          63.5149   86.6712   13.2196 N.pl3   1  UNL1       -0.2736
      2 C          63.7718   85.6133   14.2515 C.3     1  UNL1        0.1082
      3 C          63.5176   84.2773   13.6188 C.3     1  UNL1        0.1550
      4 C          63.6096   82.8793   14.1545 C.2     1  UNL1        0.2922
      5 O          64.0236   82.6470   15.5775 O.2     1  UNL1       -0.2563
      6 N          63.2877   81.7134   13.2673 N.am    1  UNL1       -0.1448
      7 C          63.3797   80.3153   13.8030 C.3     1  UNL1        0.2159
      8 C          62.8738   81.9455   11.8444 C.2     1  UNL1        0.3732
      9 N          62.5518   80.7797   10.9571 N.pl3   1  UNL1       -0.2512
     10 N          62.7817   83.3435   11.3086 N.2     1  UNL1       -0.1015
     11 C          63.1037   84.5094   12.1958 C.3     1  UNL1        0.1995
     12 C          63.1020   85.9890   11.9491 C.3     1  UNL1        0.1382
     13 H          62.6122   79.8621   11.3087 H       1  UNL1        0.2412
     14 H          62.2801   80.9321   10.0232 H       1  UNL1        0.2412
     15 C          62.7059   84.8950   10.8019 C.ar    1  UNL1        0.0728
     16 C          63.5172   84.4218    9.6324 C.ar    1  UNL1        0.1416
     17 F          64.7263   83.5630    9.8567 F       1  UNL1       -0.2043
     18 C          63.1194   84.8075    8.2384 C.ar    1  UNL1        0.0319
     19 C          61.9103   85.6663    8.0141 C.ar    1  UNL1        0.0343
     20 C          61.0989   86.1395    9.1836 C.ar    1  UNL1        0.1673
     21 F          59.8898   86.9984    8.9591 F       1  UNL1       -0.2018
     22 C          61.4967   85.7539   10.5776 C.ar    1  UNL1        0.1687
     23 F          60.6854   86.2271   11.7471 F       1  UNL1       -0.2019
     24 C          63.8388   90.5490   12.4398 C.ar    1  UNL1        0.2569
     25 N          63.7061   89.0687   12.2370 N.ar    1  UNL1       -0.1768
     26 C          63.6476   88.1515   13.4224 C.ar    1  UNL1        0.2226
     27 N          63.7219   88.7146   14.8108 N.ar    1  UNL1       -0.2155
     28 C          63.8546   90.1949   15.0136 C.ar    1  UNL1        0.0942
     29 C          63.9289   90.7579   16.4019 C.3     1  UNL1        0.0548
     30 C          63.9131   91.1121   13.8281 C.ar    1  UNL1        0.2065
     31 F          64.0458   92.5924   14.0310 F       1  UNL1       -0.1980
     32 C          63.0126   91.2171   10.0689 C.3     1  UNL1        0.2543
     33 O          63.8973   91.4662   11.2543 O.3     1  UNL1       -0.4545
@<TRIPOS>BOND
     1    32    33    1
     2    33    24    1
     3    24    25   ar
     4    25    26   ar
     5    26     1    1
     6     1     2    1
     7     3     2    1
     8     3     4    1
     9     4     5    2
    10     4     6   am
    11     6     7    1
    12     6     8    1
    13     8     9    1
    14     8    10    2
    15    10    11    1
    16    11    15    1
    17    15    16   ar
    18    16    17    1
    19    16    18   ar
    20    18    19   ar
    21    19    20   ar
    22    20    21    1
    23    20    22   ar
    24    22    23    1
    25    11    12    1
    26    26    27   ar
    27    27    28   ar
    28    28    29    1
    29    28    30   ar
    30    30    31    1
    31    30    24   ar
    32    12     1    1
    33    11     3    1
    34    22    15   ar
    35     9    13    1
    36     9    14    1
@<TRIPOS>MOLECULE
*****
 33 36 0 0 0
SMALL
GASTEIGER

@<TRIPOS>ATOM
      1 N          71.7059   73.9243   14.1815 N.pl3   1  UNL1       -0.2736
      2 C          71.8447   73.2445   15.5114 C.3     1  UNL1        0.1082
      3 C          71.6178   71.7759   15.3071 C.3     1  UNL1        0.1550
      4 C          71.6293   70.6166   16.2589 C.2     1  UNL1        0.2922
      5 O          71.9083   70.8443   17.7150 O.2     1  UNL1       -0.2563
      6 N          71.3616   69.2295   15.7545 N.am    1  UNL1       -0.1448
      7 C          71.3731   68.0701   16.7063 C.3     1  UNL1        0.2159
      8 C          71.0826   69.0017   14.2985 C.2     1  UNL1        0.3732
      9 N          70.8149   67.6145   13.7941 N.pl3   1  UNL1       -0.2512
     10 N          71.0711   70.1610   13.3467 N.2     1  UNL1       -0.1015
     11 C          71.3388   71.5480   13.8510 C.3     1  UNL1        0.1995
     12 C          71.3932   72.8759   13.1553 C.3     1  UNL1        0.1382
     13 H          70.8224   66.8536   14.4187 H       1  UNL1        0.2412
     14 H          70.6318   67.4651   12.8384 H       1  UNL1        0.2412
     15 C          71.0767   71.4752   12.3758 C.ar    1  UNL1        0.0728
     16 C          69.6678   71.3944   11.8675 C.ar    1  UNL1        0.1416
     17 F          68.5209   71.3865   12.8342 F       1  UNL1       -0.2043
     18 C          69.4057   71.3215   10.3924 C.ar    1  UNL1        0.0319
     19 C          70.5526   71.3294    9.4256 C.ar    1  UNL1        0.0343
     20 C          71.9615   71.4102    9.9340 C.ar    1  UNL1        0.1673
     21 F          73.1083   71.4181    8.9671 F       1  UNL1       -0.2018
     22 C          72.2236   71.4831   11.4091 C.ar    1  UNL1        0.1687
     23 F          73.6325   71.5638   11.9175 F       1  UNL1       -0.2019
     24 C          72.1583   77.8161   14.8139 C.ar    1  UNL1        0.2569
     25 N          72.0104   76.3458   15.0721 N.ar    1  UNL1       -0.1768
     26 C          71.8538   75.3944   13.9231 C.ar    1  UNL1        0.2226
     27 N          71.8452   75.9132   12.5157 N.ar    1  UNL1       -0.2155
     28 C          71.9931   77.3834   12.2574 C.ar    1  UNL1        0.0942
     29 C          71.9844   77.9022   10.8500 C.3     1  UNL1        0.0548
     30 C          72.1496   78.3348   13.4065 C.ar    1  UNL1        0.2065
     31 F          72.2975   79.8050   13.1481 F       1  UNL1       -0.1980
     32 C          73.6190   79.4769   16.1770 C.3     1  UNL1        0.2543
     33 O          72.3149   78.7674   15.9629 O.3     1  UNL1       -0.4545
@<TRIPOS>BOND
     1    32    33    1
     2    33    24    1
     3    24    25   ar
     4    25    26   ar
     5    26     1    1
     6     1     2    1
     7     3     2    1
     8     3     4    1
     9     4     5    2
    10     4     6   am
    11     6     7    1
    12     6     8    1
    13     8     9    1
    14     8    10    2
    15    10    11    1
    16    11    15    1
    17    15    16   ar
    18    16    17    1
    19    16    18   ar
    20    18    19   ar
    21    19    20   ar
    22    20    21    1
    23    20    22   ar
    24    22    23    1
    25    11    12    1
    26    26    27   ar
    27    27    28   ar
    28    28    29    1
    29    28    30   ar
    30    30    31    1
    31    30    24   ar
    32    12     1    1
    33    11     3    1
    34    22    15   ar
    35     9    13    1
    36     9    14    1
@<TRIPOS>MOLECULE
*****
 33 36 0 0 0
SMALL
GASTEIGER

@<TRIPOS>ATOM
      1 N          64.3931   89.6290   13.8061 N.pl3   1  UNL1       -0.2736
      2 C          63.7884   90.0493   12.4993 C.3     1  UNL1        0.1082
      3 C          64.4206   91.3472   12.0921 C.3     1  UNL1        0.1550
      4 C          64.2185   92.2306   10.8969 C.2     1  UNL1        0.2922
      5 O          63.2231   91.8488    9.8417 O.2     1  UNL1       -0.2563
      6 N          65.0119   93.4960   10.7569 N.am    1  UNL1       -0.1448
      7 C          64.8097   94.3795    9.5616 C.3     1  UNL1        0.2159
      8 C          66.0072   93.8778   11.8120 C.2     1  UNL1        0.3732
      9 N          66.8005   95.1432   11.6720 N.pl3   1  UNL1       -0.2512
     10 N          66.2093   92.9944   13.0072 N.2     1  UNL1       -0.1015
     11 C          65.4160   91.7290   13.1473 C.3     1  UNL1        0.1995
     12 C          65.3990   90.6671   14.2066 C.3     1  UNL1        0.1382
     13 H          66.6679   95.7231   10.8875 H       1  UNL1        0.2412
     14 H          67.4538   95.3938   12.3645 H       1  UNL1        0.2412
     15 C          66.3703   91.9791   14.2773 C.ar    1  UNL1        0.0728
     16 C          65.8455   92.3145   15.6419 C.ar    1  UNL1        0.1416
     17 F          64.3664   92.3998   15.8765 F       1  UNL1       -0.2043
     18 C          66.7997   92.5645   16.7719 C.ar    1  UNL1        0.0319
     19 C          68.2788   92.4793   16.5372 C.ar    1  UNL1        0.0343
     20 C          68.8036   92.1439   15.1726 C.ar    1  UNL1        0.1673
     21 F          70.2827   92.0586   14.9381 F       1  UNL1       -0.2018
     22 C          67.8494   91.8938   14.0426 C.ar    1  UNL1        0.1687
     23 F          68.3742   91.5585   12.6780 F       1  UNL1       -0.2019
     24 C          63.8788   85.7995   14.7122 C.ar    1  UNL1        0.2569
     25 N          64.2200   87.0402   13.9413 N.ar    1  UNL1       -0.1768
     26 C          64.0518   88.3884   14.5770 C.ar    1  UNL1        0.2226
     27 N          63.5423   88.4959   15.9837 N.ar    1  UNL1       -0.2155
     28 C          63.2010   87.2552   16.7546 C.ar    1  UNL1        0.0942
     29 C          62.6914   87.3627   18.1613 C.3     1  UNL1        0.0548
     30 C          63.3692   85.9070   16.1189 C.ar    1  UNL1        0.2065
     31 F          63.0279   84.6664   16.8899 F       1  UNL1       -0.1980
     32 C          62.8404   83.6442   13.6991 C.3     1  UNL1        0.2543
     33 O          64.0470   84.4514   14.0764 O.3     1  UNL1       -0.4545
@<TRIPOS>BOND
     1    32    33    1
     2    33    24    1
     3    24    25   ar
     4    25    26   ar
     5    26     1    1
     6     1     2    1
     7     3     2    1
     8     3     4    1
     9     4     5    2
    10     4     6   am
    11     6     7    1
    12     6     8    1
    13     8     9    1
    14     8    10    2
    15    10    11    1
    16    11    15    1
    17    15    16   ar
    18    16    17    1
    19    16    18   ar
    20    18    19   ar
    21    19    20   ar
    22    20    21    1
    23    20    22   ar
    24    22    23    1
    25    11    12    1
    26    26    27   ar
    27    27    28   ar
    28    28    29    1
    29    28    30   ar
    30    30    31    1
    31    30    24   ar
    32    12     1    1
    33    11     3    1
    34    22    15   ar
    35     9    13    1
    36     9    14    1
@<TRIPOS>MOLECULE
*****
 33 36 0 0 0
SMALL
GASTEIGER

@<TRIPOS>ATOM
      1 N          71.7150   74.2635   14.3577 N.pl3   1  UNL1       -0.2736
      2 C          71.8700   73.6754   15.7289 C.3     1  UNL1        0.1082
      3 C          71.6545   72.1946   15.6252 C.3     1  UNL1        0.1550
      4 C          71.6835   71.1018   16.6523 C.2     1  UNL1        0.2922
      5 O          71.9717   71.4289   18.0876 O.2     1  UNL1       -0.2563
      6 N          71.4243   69.6819   16.2440 N.am    1  UNL1       -0.1448
      7 C          71.4533   68.5890   17.2711 C.3     1  UNL1        0.2159
      8 C          71.1361   69.3548   14.8088 C.2     1  UNL1        0.3732
      9 N          70.8769   67.9348   14.4006 N.pl3   1  UNL1       -0.2512
     10 N          71.1071   70.4476   13.7817 N.2     1  UNL1       -0.1015
     11 C          71.3663   71.8675   14.1899 C.3     1  UNL1        0.1995
     12 C          71.4037   73.1462   13.4066 C.3     1  UNL1        0.1382
     13 H          70.8959   67.2175   15.0747 H       1  UNL1        0.2412
     14 H          70.6877   67.7202   13.4586 H       1  UNL1        0.2412
     15 C          71.0936   71.6939   12.7252 C.ar    1  UNL1        0.0728
     16 C          72.2260   71.7298   11.7420 C.ar    1  UNL1        0.1416
     17 F          73.6310   71.9393   12.2236 F       1  UNL1       -0.2043
     18 C          71.9532   71.5561   10.2773 C.ar    1  UNL1        0.0319
     19 C          70.5482   71.3465    9.7957 C.ar    1  UNL1        0.0343
     20 C          69.4159   71.3107   10.7789 C.ar    1  UNL1        0.1673
     21 F          68.0108   71.1011   10.2972 F       1  UNL1       -0.2018
     22 C          69.6886   71.4843   12.2436 C.ar    1  UNL1        0.1687
     23 F          68.5563   71.4484   13.2268 F       1  UNL1       -0.2019
     24 C          71.8174   77.6045   12.2181 C.ar    1  UNL1        0.2569
     25 N          71.6845   76.1537   12.5756 N.ar    1  UNL1       -0.1768
     26 C          71.8479   75.7142   14.0004 C.ar    1  UNL1        0.2226
     27 N          72.1443   76.7255   15.0678 N.ar    1  UNL1       -0.2155
     28 C          72.2772   78.1763   14.7104 C.ar    1  UNL1        0.0942
     29 C          72.5736   79.1875   15.7779 C.3     1  UNL1        0.0548
     30 C          72.1138   78.6157   13.2856 C.ar    1  UNL1        0.2065
     31 F          72.2467   80.0665   12.9282 F       1  UNL1       -0.1980
     32 C          72.7653   78.7768   10.1022 C.3     1  UNL1        0.2543
     33 O          71.6540   78.0439   10.7933 O.3     1  UNL1       -0.4545
@<TRIPOS>BOND
     1    32    33    1
     2    33    24    1
     3    24    25   ar
     4    25    26   ar
     5    26     1    1
     6     1     2    1
     7     3     2    1
     8     3     4    1
     9     4     5    2
    10     4     6   am
    11     6     7    1
    12     6     8    1
    13     8     9    1
    14     8    10    2
    15    10    11    1
    16    11    15    1
    17    15    16   ar
    18    16    17    1
    19    16    18   ar
    20    18    19   ar
    21    19    20   ar
    22    20    21    1
    23    20    22   ar
    24    22    23    1
    25    11    12    1
    26    26    27   ar
    27    27    28   ar
    28    28    29    1
    29    28    30   ar
    30    30    31    1
    31    30    24   ar
    32    12     1    1
    33    11     3    1
    34    22    15   ar
    35     9    13    1
    36     9    14    1
