@<TRIPOS>MOLECULE
*****
 15 16 0 0 0
SMALL
GASTEIGER

@<TRIPOS>ATOM
      1 C          60.5846   87.8599   10.9011 C.ar    1  UNL1        0.1677
      2 C          61.1374   87.7793    9.5090 C.ar    1  UNL1        0.0424
      3 C          62.0343   86.5793    9.4352 C.ar    1  UNL1        0.0407
      4 C          62.0359   85.9183   10.7817 C.ar    1  UNL1        0.1469
      5 O          61.1399   86.7098   11.6877 O.2     1  UNL1       -0.4518
      6 C          62.7994   84.6826   11.1564 C.ar    1  UNL1        0.0537
      7 C          63.5330   83.9061   10.1034 C.ar    1  UNL1        0.0062
      8 C          64.2964   82.6705   10.4782 C.ar    1  UNL1        0.0208
      9 C          64.3263   82.2115   11.9059 C.ar    1  UNL1        0.0989
     10 N          63.5928   82.9880   12.9589 N.ar    1  UNL1       -0.2422
     11 C          62.8293   84.2236   12.5841 C.ar    1  UNL1        0.1019
     12 O          58.9171   91.3963   11.5816 O.2     1  UNL1       -0.4086
     13 N          59.8595   90.3493   11.0665 N.2     1  UNL1       -0.0814
     14 C          59.6421   88.9070   11.4162 C.2     1  UNL1        0.1771
     15 H          59.0530   92.2973   11.3631 H       1  UNL1        0.3278
@<TRIPOS>BOND
     1    12    13    1
     2    13    14    2
     3    14     1    1
     4     1     2   ar
     5     2     3   ar
     6     3     4   ar
     7     4     6    1
     8     6     7   ar
     9     7     8   ar
    10     8     9   ar
    11     9    10   ar
    12    10    11   ar
    13     4     5   ar
    14     5     1   ar
    15    11     6   ar
    16    12    15    1
@<TRIPOS>MOLECULE
*****
 15 16 0 0 0
SMALL
GASTEIGER

@<TRIPOS>ATOM
      1 C          63.1648   90.1389   12.6239 C.ar    1  UNL1        0.1677
      2 C          63.4756   91.0544   11.4770 C.ar    1  UNL1        0.0424
      3 C          62.8800   90.4603   10.2352 C.ar    1  UNL1        0.0407
      4 C          62.2010   89.1777   10.6145 C.ar    1  UNL1        0.1469
      5 O          62.3771   88.9790   12.0908 O.2     1  UNL1       -0.4518
      6 C          61.4737   88.2556    9.6813 C.ar    1  UNL1        0.0537
      7 C          62.0370   86.8991    9.3771 C.ar    1  UNL1        0.0062
      8 C          61.3097   85.9770    8.4439 C.ar    1  UNL1        0.0208
      9 C          60.0191   86.4115    7.8150 C.ar    1  UNL1        0.0989
     10 N          59.4558   87.7680    8.1192 N.ar    1  UNL1       -0.2422
     11 C          60.1831   88.6900    9.0524 C.ar    1  UNL1        0.1019
     12 O          63.0989   90.0543   16.5911 O.2     1  UNL1       -0.4086
     13 N          62.6933   89.8465   15.1621 N.2     1  UNL1       -0.0814
     14 C          63.5706   90.3468   14.0530 C.2     1  UNL1        0.1771
     15 H          62.5508   89.7418   17.2838 H       1  UNL1        0.3278
@<TRIPOS>BOND
     1    12    13    1
     2    13    14    2
     3    14     1    1
     4     1     2   ar
     5     2     3   ar
     6     3     4   ar
     7     4     6    1
     8     6     7   ar
     9     7     8   ar
    10     8     9   ar
    11     9    10   ar
    12    10    11   ar
    13     4     5   ar
    14     5     1   ar
    15    11     6   ar
    16    12    15    1
@<TRIPOS>MOLECULE
*****
 15 16 0 0 0
SMALL
GASTEIGER

@<TRIPOS>ATOM
      1 C          64.6094   91.0476   13.6739 C.ar    1  UNL1        0.1677
      2 C          65.9096   91.1760   14.4108 C.ar    1  UNL1        0.0424
      3 C          66.8312   92.0200   13.5812 C.ar    1  UNL1        0.0407
      4 C          66.1005   92.4134   12.3316 C.ar    1  UNL1        0.1469
      5 O          64.7274   91.8124   12.3889 O.2     1  UNL1       -0.4518
      6 C          66.6471   93.2592   11.2199 C.ar    1  UNL1        0.0537
      7 C          67.4845   92.6339   10.1439 C.ar    1  UNL1        0.0062
      8 C          68.0310   93.4798    9.0323 C.ar    1  UNL1        0.0208
      9 C          67.7402   94.9509    8.9966 C.ar    1  UNL1        0.0989
     10 N          66.9028   95.5762   10.0726 N.ar    1  UNL1       -0.2422
     11 C          66.3563   94.7303   11.1843 C.ar    1  UNL1        0.1019
     12 O          61.9336   89.3658   16.0743 O.2     1  UNL1       -0.4086
     13 N          63.1400   90.1255   15.6080 N.2     1  UNL1       -0.0814
     14 C          63.4029   90.2879   14.1402 C.2     1  UNL1        0.1771
     15 H          61.7694   89.2644   16.9912 H       1  UNL1        0.3278
@<TRIPOS>BOND
     1    12    13    1
     2    13    14    2
     3    14     1    1
     4     1     2   ar
     5     2     3   ar
     6     3     4   ar
     7     4     6    1
     8     6     7   ar
     9     7     8   ar
    10     8     9   ar
    11     9    10   ar
    12    10    11   ar
    13     4     5   ar
    14     5     1   ar
    15    11     6   ar
    16    12    15    1
@<TRIPOS>MOLECULE
*****
 15 16 0 0 0
SMALL
GASTEIGER

@<TRIPOS>ATOM
      1 C          62.7186   87.7078   11.8623 C.ar    1  UNL1        0.1677
      2 C          61.9468   87.1749   10.6916 C.ar    1  UNL1        0.0424
      3 C          61.8710   85.6829   10.8269 C.ar    1  UNL1        0.0407
      4 C          62.5959   85.2938   12.0812 C.ar    1  UNL1        0.1469
      5 O          63.1197   86.5452   12.7210 O.2     1  UNL1       -0.4518
      6 C          62.7670   83.8981   12.6038 C.ar    1  UNL1        0.0537
      7 C          62.7894   82.7386   11.6525 C.ar    1  UNL1        0.0062
      8 C          62.9604   81.3431   12.1751 C.ar    1  UNL1        0.0208
      9 C          63.1091   81.1071   13.6490 C.ar    1  UNL1        0.0989
     10 N          63.0867   82.2666   14.6002 N.ar    1  UNL1       -0.2422
     11 C          62.9156   83.6622   14.0776 C.ar    1  UNL1        0.1019
     12 O          63.0734   91.1842   13.7434 O.2     1  UNL1       -0.4086
     13 N          62.7582   89.7420   13.4780 N.2     1  UNL1       -0.0814
     14 C          63.0338   89.1501   12.1276 C.2     1  UNL1        0.1771
     15 H          62.9012   91.5539   14.5870 H       1  UNL1        0.3278
@<TRIPOS>BOND
     1    12    13    1
     2    13    14    2
     3    14     1    1
     4     1     2   ar
     5     2     3   ar
     6     3     4   ar
     7     4     6    1
     8     6     7   ar
     9     7     8   ar
    10     8     9   ar
    11     9    10   ar
    12    10    11   ar
    13     4     5   ar
    14     5     1   ar
    15    11     6   ar
    16    12    15    1
@<TRIPOS>MOLECULE
*****
 15 16 0 0 0
SMALL
GASTEIGER

@<TRIPOS>ATOM
      1 C          63.3678   90.5997   11.9699 C.ar    1  UNL1        0.1677
      2 C          63.3404   89.5694   13.0598 C.ar    1  UNL1        0.0424
      3 C          64.4441   89.8862   14.0250 C.ar    1  UNL1        0.0407
      4 C          65.1535   91.1123   13.5316 C.ar    1  UNL1        0.1469
      5 O          64.4884   91.5533   12.2616 O.2     1  UNL1       -0.4518
      6 C          66.3229   91.7802   14.1924 C.ar    1  UNL1        0.0537
      7 C          66.1841   92.3364   15.5785 C.ar    1  UNL1        0.0062
      8 C          67.3534   93.0043   16.2392 C.ar    1  UNL1        0.0208
      9 C          68.6616   93.1160   15.5138 C.ar    1  UNL1        0.0989
     10 N          68.8004   92.5598   14.1277 N.ar    1  UNL1       -0.2422
     11 C          67.6311   91.8919   13.4670 C.ar    1  UNL1        0.1019
     12 O          60.0286   90.5917    9.8254 O.2     1  UNL1       -0.4086
     13 N          60.9585   90.5265   11.0004 N.2     1  UNL1       -0.0814
     14 C          62.4379   90.6649   10.7948 C.2     1  UNL1        0.1771
     15 H          59.1044   90.5052    9.9539 H       1  UNL1        0.3278
@<TRIPOS>BOND
     1    12    13    1
     2    13    14    2
     3    14     1    1
     4     1     2   ar
     5     2     3   ar
     6     3     4   ar
     7     4     6    1
     8     6     7   ar
     9     7     8   ar
    10     8     9   ar
    11     9    10   ar
    12    10    11   ar
    13     4     5   ar
    14     5     1   ar
    15    11     6   ar
    16    12    15    1
@<TRIPOS>MOLECULE
*****
 15 16 0 0 0
SMALL
GASTEIGER

@<TRIPOS>ATOM
      1 C          63.1789   83.5624   11.5540 C.ar    1  UNL1        0.1677
      2 C          63.8762   83.4442   10.2311 C.ar    1  UNL1        0.0424
      3 C          63.3618   84.5332    9.3371 C.ar    1  UNL1        0.0407
      4 C          62.3466   85.3245   10.1073 C.ar    1  UNL1        0.1469
      5 O          62.2335   84.7245   11.4774 O.2     1  UNL1       -0.4518
      6 C          61.5791   86.5080    9.5970 C.ar    1  UNL1        0.0537
      7 C          60.4473   86.3090    8.6331 C.ar    1  UNL1        0.0062
      8 C          59.6799   87.4925    8.1228 C.ar    1  UNL1        0.0208
      9 C          60.0444   88.8750    8.5765 C.ar    1  UNL1        0.0989
     10 N          61.1762   89.0740    9.5404 N.ar    1  UNL1       -0.2422
     11 C          61.9436   87.8905   10.0507 C.ar    1  UNL1        0.1019
     12 O          62.4672   81.5162   14.8791 O.2     1  UNL1       -0.4086
     13 N          62.2563   82.4042   13.6888 N.2     1  UNL1       -0.0814
     14 C          63.3899   82.6744   12.7443 C.2     1  UNL1        0.1771
     15 H          61.7591   81.3475   15.4691 H       1  UNL1        0.3278
@<TRIPOS>BOND
     1    12    13    1
     2    13    14    2
     3    14     1    1
     4     1     2   ar
     5     2     3   ar
     6     3     4   ar
     7     4     6    1
     8     6     7   ar
     9     7     8   ar
    10     8     9   ar
    11     9    10   ar
    12    10    11   ar
    13     4     5   ar
    14     5     1   ar
    15    11     6   ar
    16    12    15    1
@<TRIPOS>MOLECULE
*****
 15 16 0 0 0
SMALL
GASTEIGER

@<TRIPOS>ATOM
      1 C          63.8065   87.6566   13.5687 C.ar    1  UNL1        0.1677
      2 C          64.5372   87.2354   14.8092 C.ar    1  UNL1        0.0424
      3 C          64.4213   85.7450   14.9319 C.ar    1  UNL1        0.0407
      4 C          63.6190   85.2450   13.7672 C.ar    1  UNL1        0.1469
      5 O          63.2391   86.4264   12.9247 O.2     1  UNL1       -0.4518
      6 C          63.2598   83.8146   13.4932 C.ar    1  UNL1        0.0537
      7 C          63.1875   83.3170   12.0800 C.ar    1  UNL1        0.0062
      8 C          62.8283   81.8866   11.8060 C.ar    1  UNL1        0.0208
      9 C          62.5415   80.9539   12.9452 C.ar    1  UNL1        0.0989
     10 N          62.6138   81.4515   14.3584 N.ar    1  UNL1       -0.2422
     11 C          62.9730   82.8819   14.6323 C.ar    1  UNL1        0.1019
     12 O          63.4240   91.6064   13.5227 O.2     1  UNL1       -0.4086
     13 N          63.5629   90.2018   14.0300 N.2     1  UNL1       -0.0814
     14 C          63.6676   89.0613   13.0613 C.2     1  UNL1        0.1771
     15 H          63.3586   92.3188   14.1278 H       1  UNL1        0.3278
@<TRIPOS>BOND
     1    12    13    1
     2    13    14    2
     3    14     1    1
     4     1     2   ar
     5     2     3   ar
     6     3     4   ar
     7     4     6    1
     8     6     7   ar
     9     7     8   ar
    10     8     9   ar
    11     9    10   ar
    12    10    11   ar
    13     4     5   ar
    14     5     1   ar
    15    11     6   ar
    16    12    15    1
@<TRIPOS>MOLECULE
*****
 15 16 0 0 0
SMALL
GASTEIGER

@<TRIPOS>ATOM
      1 C          60.4132   87.4034    8.8999 C.ar    1  UNL1        0.1677
      2 C          61.1395   88.3275    9.8319 C.ar    1  UNL1        0.0424
      3 C          62.0774   87.5038   10.6637 C.ar    1  UNL1        0.0407
      4 C          61.9307   86.0706   10.2459 C.ar    1  UNL1        0.1469
      5 O          60.9021   86.0086    9.1558 O.2     1  UNL1       -0.4518
      6 C          62.6808   84.9043   10.8178 C.ar    1  UNL1        0.0537
      7 C          63.4975   84.0242    9.9187 C.ar    1  UNL1        0.0062
      8 C          64.2476   82.8579   10.4906 C.ar    1  UNL1        0.0208
      9 C          64.1810   82.5718   11.9616 C.ar    1  UNL1        0.0989
     10 N          63.3643   83.4519   12.8606 N.ar    1  UNL1       -0.2422
     11 C          62.6142   84.6182   12.2887 C.ar    1  UNL1        0.1019
     12 O          58.4927   89.4932    6.1261 O.2     1  UNL1       -0.4086
     13 N          59.5264   89.0927    7.1364 N.2     1  UNL1       -0.0814
     14 C          59.3794   87.8038    7.8895 C.2     1  UNL1        0.1771
     15 H          58.5846   90.2983    5.6557 H       1  UNL1        0.3278
@<TRIPOS>BOND
     1    12    13    1
     2    13    14    2
     3    14     1    1
     4     1     2   ar
     5     2     3   ar
     6     3     4   ar
     7     4     6    1
     8     6     7   ar
     9     7     8   ar
    10     8     9   ar
    11     9    10   ar
    12    10    11   ar
    13     4     5   ar
    14     5     1   ar
    15    11     6   ar
    16    12    15    1
@<TRIPOS>MOLECULE
*****
 15 16 0 0 0
SMALL
GASTEIGER

@<TRIPOS>ATOM
      1 C          63.5058   86.9906   16.0836 C.ar    1  UNL1        0.1677
      2 C          63.0194   88.0545   17.0226 C.ar    1  UNL1        0.0424
      3 C          63.2693   89.3876   16.3821 C.ar    1  UNL1        0.0407
      4 C          63.9101   89.1477   15.0472 C.ar    1  UNL1        0.1469
      5 O          64.0562   87.6663   14.8627 O.2     1  UNL1       -0.4518
      6 C          64.3309   90.2039   14.0687 C.ar    1  UNL1        0.0537
      7 C          63.6363   90.3186   12.7441 C.ar    1  UNL1        0.0062
      8 C          64.0571   91.3747   11.7657 C.ar    1  UNL1        0.0208
      9 C          65.1725   92.3161   12.1117 C.ar    1  UNL1        0.0989
     10 N          65.8670   92.2014   13.4362 N.ar    1  UNL1       -0.2422
     11 C          65.4462   91.1453   14.4147 C.ar    1  UNL1        0.1019
     12 O          62.6140   83.1496   15.6356 O.2     1  UNL1       -0.4086
     13 N          62.6686   84.6292   15.3959 N.2     1  UNL1       -0.0814
     14 C          63.4512   85.5109   16.3233 C.2     1  UNL1        0.1771
     15 H          62.1251   82.5989   15.0562 H       1  UNL1        0.3278
@<TRIPOS>BOND
     1    12    13    1
     2    13    14    2
     3    14     1    1
     4     1     2   ar
     5     2     3   ar
     6     3     4   ar
     7     4     6    1
     8     6     7   ar
     9     7     8   ar
    10     8     9   ar
    11     9    10   ar
    12    10    11   ar
    13     4     5   ar
    14     5     1   ar
    15    11     6   ar
    16    12    15    1
