@<TRIPOS>MOLECULE
*****
 29 32 0 0 0
SMALL
GASTEIGER

@<TRIPOS>ATOM
      1 C          64.0239   87.3931   14.3753 C.2     1  UNL1        0.2252
      2 O          63.5027   87.5259   12.9751 O.2     1  UNL1       -0.2750
      3 N          63.9759   88.5670   15.3080 N.am    1  UNL1       -0.3004
      4 H          64.3181   88.4798   16.2270 H       1  UNL1        0.1497
      5 C          64.5932   86.0864   14.8429 C.3     1  UNL1        0.1154
      6 C          63.4875   85.5404   16.4269 C.3     1  UNL1        0.0335
      7 C          63.6867   84.9148   15.0782 C.3     1  UNL1        0.1377
      8 C          64.0755   84.5341   13.6803 C.3     1  UNL1        0.0613
      9 C          63.3675   83.2579   13.3336 C.3     1  UNL1        0.1290
     10 C          62.5967   81.9872   13.1306 C.3     1  UNL1        0.0305
     11 C          62.6974   81.2488   11.8289 C.3     1  UNL1        0.0025
     12 C          63.5688   81.7810   10.7301 C.3     1  UNL1        0.0002
     13 C          64.3397   83.0517   10.9331 C.3     1  UNL1        0.0025
     14 C          64.2390   83.7901   12.2348 C.3     1  UNL1        0.0305
     15 O          62.5412   82.8498   14.5171 O.3     1  UNL1       -0.2256
     16 O          62.7385   83.8739   15.5954 O.3     1  UNL1       -0.2251
     17 C          63.4067   89.8736   14.8404 C.3     1  UNL1        0.1163
     18 C          64.1765   90.7241   13.8739 C.ar    1  UNL1       -0.0025
     19 C          65.4870   91.3273   14.2846 C.ar    1  UNL1       -0.0014
     20 C          66.2568   92.1778   13.3182 C.ar    1  UNL1        0.0142
     21 C          65.7161   92.4250   11.9410 C.ar    1  UNL1        0.0480
     22 C          64.4057   91.8218   11.5304 C.ar    1  UNL1        0.0142
     23 C          63.6358   90.9713   12.4968 C.ar    1  UNL1       -0.0014
     24 N          66.4860   93.2756   10.9746 N.pl3   1  UNL1       -0.3028
     25 C          67.5007   92.6473   10.0660 C.3     1  UNL1        0.1231
     26 C          68.2706   93.4978    9.0996 C.3     1  UNL1        0.1636
     27 O          68.0257   94.9767    9.0418 O.3     1  UNL1       -0.3501
     28 C          67.0109   95.6048    9.9505 C.3     1  UNL1        0.1636
     29 C          66.2411   94.7543   10.9168 C.3     1  UNL1        0.1231
@<TRIPOS>BOND
     1     6     7    1
     2     7     5    1
     3     5     1    1
     4     1     2    2
     5     1     3   am
     6     3    17    1
     7    17    18    1
     8    18    19   ar
     9    19    20   ar
    10    20    21   ar
    11    21    24    1
    12    24    25    1
    13    25    26    1
    14    26    27    1
    15    27    28    1
    16    28    29    1
    17    21    22   ar
    18    22    23   ar
    19     7     8    1
    20     8     9    1
    21     9    10    1
    22    10    11    1
    23    11    12    1
    24    12    13    1
    25    13    14    1
    26     9    15    1
    27    15    16    1
    28    16     7    1
    29    23    18   ar
    30    14     9    1
    31    29    24    1
    32     3     4    1
@<TRIPOS>MOLECULE
*****
 29 32 0 0 0
SMALL
GASTEIGER

@<TRIPOS>ATOM
      1 C          64.0267   87.3951   14.3739 C.2     1  UNL1        0.2252
      2 O          63.5016   87.5300   12.9754 O.2     1  UNL1       -0.2750
      3 N          63.9830   88.5682   15.3079 N.am    1  UNL1       -0.3004
      4 H          64.3277   88.4796   16.2258 H       1  UNL1        0.1497
      5 C          64.5955   86.0872   14.8386 C.3     1  UNL1        0.1154
      6 C          63.4854   85.5400   16.4191 C.3     1  UNL1        0.0335
      7 C          63.6887   84.9152   15.0707 C.3     1  UNL1        0.1377
      8 C          64.0817   84.5354   13.6738 C.3     1  UNL1        0.0613
      9 C          63.3751   83.2591   13.3242 C.3     1  UNL1        0.1290
     10 C          62.6053   81.9883   13.1184 C.3     1  UNL1        0.0305
     11 C          62.7100   81.2506   11.8166 C.3     1  UNL1        0.0025
     12 C          63.5845   81.7836   10.7206 C.3     1  UNL1        0.0002
     13 C          64.3543   83.0544   10.9265 C.3     1  UNL1        0.0025
     14 C          64.2496   83.7921   12.2283 C.3     1  UNL1        0.0305
     15 O          62.5455   82.8502   14.5052 O.3     1  UNL1       -0.2256
     16 O          62.7393   83.8737   15.5846 O.3     1  UNL1       -0.2251
     17 C          63.4142   89.8760   14.8432 C.3     1  UNL1        0.1163
     18 C          64.1830   90.7270   13.8764 C.ar    1  UNL1       -0.0025
     19 C          63.6364   90.9828   12.5032 C.ar    1  UNL1       -0.0014
     20 C          64.4052   91.8338   11.5364 C.ar    1  UNL1        0.0142
     21 C          65.7207   92.4291   11.9429 C.ar    1  UNL1        0.0480
     22 C          66.2673   92.1734   13.3161 C.ar    1  UNL1        0.0142
     23 C          65.4985   91.3223   14.2829 C.ar    1  UNL1       -0.0014
     24 N          66.4895   93.2801   10.9760 N.pl3   1  UNL1       -0.3028
     25 C          66.2415   94.7582   10.9164 C.3     1  UNL1        0.1231
     26 C          67.0103   95.6093    9.9496 C.3     1  UNL1        0.1636
     27 O          68.0271   94.9821    9.0424 O.3     1  UNL1       -0.3501
     28 C          68.2750   93.5039    9.1021 C.3     1  UNL1        0.1636
     29 C          67.5062   92.6529   10.0689 C.3     1  UNL1        0.1231
@<TRIPOS>BOND
     1     6     7    1
     2     7     5    1
     3     5     1    1
     4     1     2    2
     5     1     3   am
     6     3    17    1
     7    17    18    1
     8    18    19   ar
     9    19    20   ar
    10    20    21   ar
    11    21    24    1
    12    24    25    1
    13    25    26    1
    14    26    27    1
    15    27    28    1
    16    28    29    1
    17    21    22   ar
    18    22    23   ar
    19     7     8    1
    20     8     9    1
    21     9    10    1
    22    10    11    1
    23    11    12    1
    24    12    13    1
    25    13    14    1
    26     9    15    1
    27    15    16    1
    28    16     7    1
    29    23    18   ar
    30    14     9    1
    31    29    24    1
    32     3     4    1
@<TRIPOS>MOLECULE
*****
 29 32 0 0 0
SMALL
GASTEIGER

@<TRIPOS>ATOM
      1 C          61.1938   88.5691   11.8241 C.2     1  UNL1        0.2252
      2 O          60.3051   89.6786   12.3026 O.2     1  UNL1       -0.2750
      3 N          62.6436   88.5503   12.2087 N.am    1  UNL1       -0.3004
      4 H          63.2268   87.8221   11.8946 H       1  UNL1        0.1497
      5 C          60.6327   87.4781   10.9608 C.3     1  UNL1        0.1154
      6 C          60.9655   88.0013    9.0516 C.3     1  UNL1        0.0335
      7 C          61.4778   86.8639    9.8846 C.3     1  UNL1        0.1377
      8 C          61.8136   85.8549   10.9425 C.3     1  UNL1        0.0613
      9 C          62.7592   84.8549   10.3459 C.3     1  UNL1        0.1290
     10 C          63.6948   83.9373    9.6161 C.3     1  UNL1        0.0305
     11 C          64.2875   82.7541   10.3222 C.3     1  UNL1        0.0025
     12 C          63.9448   82.4885   11.7581 C.3     1  UNL1        0.0002
     13 C          63.0092   83.4061   12.4880 C.3     1  UNL1        0.0025
     14 C          62.4164   84.5892   11.7819 C.3     1  UNL1        0.0305
     15 O          63.0078   85.2458    8.9193 O.3     1  UNL1       -0.2256
     16 O          62.2159   86.4875    8.6341 O.3     1  UNL1       -0.2251
     17 C          63.2046   89.6413   13.0718 C.3     1  UNL1        0.1163
     18 C          63.9309   90.7946   12.4455 C.ar    1  UNL1       -0.0025
     19 C          63.6767   91.1509   11.0108 C.ar    1  UNL1       -0.0014
     20 C          64.4031   92.3042   10.3844 C.ar    1  UNL1        0.0142
     21 C          65.3837   93.1011   11.1927 C.ar    1  UNL1        0.0480
     22 C          65.6379   92.7447   12.6273 C.ar    1  UNL1        0.0142
     23 C          64.9115   91.5914   13.2538 C.ar    1  UNL1       -0.0014
     24 N          66.1100   94.2544   10.5662 N.pl3   1  UNL1       -0.3028
     25 C          65.9950   95.6260   11.1623 C.3     1  UNL1        0.1231
     26 C          66.7214   96.7793   10.5358 C.3     1  UNL1        0.1636
     27 O          67.5627   96.5608    9.3132 O.3     1  UNL1       -0.3501
     28 C          67.6776   95.1891    8.7172 C.3     1  UNL1        0.1636
     29 C          66.9513   94.0359    9.3437 C.3     1  UNL1        0.1231
@<TRIPOS>BOND
     1     6     7    1
     2     7     5    1
     3     5     1    1
     4     1     2    2
     5     1     3   am
     6     3    17    1
     7    17    18    1
     8    18    19   ar
     9    19    20   ar
    10    20    21   ar
    11    21    24    1
    12    24    25    1
    13    25    26    1
    14    26    27    1
    15    27    28    1
    16    28    29    1
    17    21    22   ar
    18    22    23   ar
    19     7     8    1
    20     8     9    1
    21     9    10    1
    22    10    11    1
    23    11    12    1
    24    12    13    1
    25    13    14    1
    26     9    15    1
    27    15    16    1
    28    16     7    1
    29    23    18   ar
    30    14     9    1
    31    29    24    1
    32     3     4    1
@<TRIPOS>MOLECULE
*****
 29 32 0 0 0
SMALL
GASTEIGER

@<TRIPOS>ATOM
      1 C          60.6148   88.5360   10.4767 C.2     1  UNL1        0.2252
      2 O          59.7420   89.3232   11.4086 O.2     1  UNL1       -0.2750
      3 N          61.8032   89.1865    9.8328 N.am    1  UNL1       -0.3004
      4 H          62.3761   88.6698    9.2212 H       1  UNL1        0.1497
      5 C          60.2992   87.0980   10.1886 C.3     1  UNL1        0.1154
      6 C          60.5944   86.9740    8.2069 C.3     1  UNL1        0.0335
      7 C          61.2429   86.2738    9.3641 C.3     1  UNL1        0.1377
      8 C          61.6941   85.7458   10.6936 C.3     1  UNL1        0.0613
      9 C          62.7813   84.7416   10.4489 C.3     1  UNL1        0.1290
     10 C          63.8497   83.7669   10.0511 C.3     1  UNL1        0.0305
     11 C          64.5867   82.9915   11.1026 C.3     1  UNL1        0.0025
     12 C          64.2553   83.1909   12.5519 C.3     1  UNL1        0.0002
     13 C          63.1868   84.1657   12.9497 C.3     1  UNL1        0.0025
     14 C          62.4498   84.9410   11.8982 C.3     1  UNL1        0.0305
     15 O          63.0019   84.6489    8.9681 O.3     1  UNL1       -0.2256
     16 O          62.0511   85.5959    8.2976 O.3     1  UNL1       -0.2251
     17 C          62.1188   90.6244   10.1209 C.3     1  UNL1        0.1163
     18 C          63.1982   90.9732   11.1023 C.ar    1  UNL1       -0.0025
     19 C          63.2250   90.3190   12.4518 C.ar    1  UNL1       -0.0014
     20 C          64.3044   90.6678   13.4332 C.ar    1  UNL1        0.0142
     21 C          65.3571   91.6709   13.0650 C.ar    1  UNL1        0.0480
     22 C          65.3304   92.3252   11.7156 C.ar    1  UNL1        0.0142
     23 C          64.2509   91.9763   10.7341 C.ar    1  UNL1       -0.0014
     24 N          66.4366   92.0198   14.0465 N.pl3   1  UNL1       -0.3028
     25 C          67.8736   92.0068   13.6167 C.3     1  UNL1        0.1231
     26 C          68.9531   92.3556   14.5982 C.3     1  UNL1        0.1636
     27 O          68.5953   92.7174   16.0093 O.3     1  UNL1       -0.3501
     28 C          67.1582   92.7303   16.4390 C.3     1  UNL1        0.1636
     29 C          66.0789   92.3815   15.4575 C.3     1  UNL1        0.1231
@<TRIPOS>BOND
     1     6     7    1
     2     7     5    1
     3     5     1    1
     4     1     2    2
     5     1     3   am
     6     3    17    1
     7    17    18    1
     8    18    19   ar
     9    19    20   ar
    10    20    21   ar
    11    21    24    1
    12    24    25    1
    13    25    26    1
    14    26    27    1
    15    27    28    1
    16    28    29    1
    17    21    22   ar
    18    22    23   ar
    19     7     8    1
    20     8     9    1
    21     9    10    1
    22    10    11    1
    23    11    12    1
    24    12    13    1
    25    13    14    1
    26     9    15    1
    27    15    16    1
    28    16     7    1
    29    23    18   ar
    30    14     9    1
    31    29    24    1
    32     3     4    1
@<TRIPOS>MOLECULE
*****
 29 32 0 0 0
SMALL
GASTEIGER

@<TRIPOS>ATOM
      1 C          65.2511   92.3461   14.3062 C.2     1  UNL1        0.2252
      2 O          64.2118   92.0119   13.2777 O.2     1  UNL1       -0.2750
      3 N          65.0750   91.8930   15.7253 N.am    1  UNL1       -0.3004
      4 H          65.7573   92.1124   16.4003 H       1  UNL1        0.1497
      5 C          66.4668   93.1334   13.9156 C.3     1  UNL1        0.1154
      6 C          67.7185   91.6538   13.3926 C.3     1  UNL1        0.0335
      7 C          67.1777   92.8273   12.6308 C.3     1  UNL1        0.1377
      8 C          66.4882   94.0647   12.1376 C.3     1  UNL1        0.0613
      9 C          66.8860   94.2782   10.7071 C.3     1  UNL1        0.1290
     10 C          67.3709   94.3616    9.2901 C.3     1  UNL1        0.0305
     11 C          66.9137   95.4836    8.4058 C.3     1  UNL1        0.0025
     12 C          65.9715   96.5222    8.9385 C.3     1  UNL1        0.0002
     13 C          65.4866   96.4387   10.3554 C.3     1  UNL1        0.0025
     14 C          65.9438   95.3167   11.2397 C.3     1  UNL1        0.0305
     15 O          67.8213   93.1726   10.3162 O.3     1  UNL1       -0.2256
     16 O          68.0016   92.2758   11.5051 O.3     1  UNL1       -0.2251
     17 C          63.8594   91.1057   16.1158 C.3     1  UNL1        0.1163
     18 C          63.8050   89.6301   15.8522 C.ar    1  UNL1       -0.0025
     19 C          63.1599   88.7134   16.8490 C.ar    1  UNL1       -0.0014
     20 C          63.1055   87.2378   16.5854 C.ar    1  UNL1        0.0142
     21 C          63.6962   86.6788   15.3250 C.ar    1  UNL1        0.0480
     22 C          64.3412   87.5954   14.3282 C.ar    1  UNL1        0.0142
     23 C          64.3957   89.0711   14.5918 C.ar    1  UNL1       -0.0014
     24 N          63.6417   85.2031   15.0615 N.pl3   1  UNL1       -0.3028
     25 C          62.4655   84.4001   15.5322 C.3     1  UNL1        0.1231
     26 C          62.4111   82.9244   15.2687 C.3     1  UNL1        0.1636
     27 O          63.5330   82.2518   14.5343 O.3     1  UNL1       -0.3501
     28 C          64.7091   83.0549   14.0636 C.3     1  UNL1        0.1636
     29 C          64.7635   84.5305   14.3271 C.3     1  UNL1        0.1231
@<TRIPOS>BOND
     1     6     7    1
     2     7     5    1
     3     5     1    1
     4     1     2    2
     5     1     3   am
     6     3    17    1
     7    17    18    1
     8    18    19   ar
     9    19    20   ar
    10    20    21   ar
    11    21    24    1
    12    24    25    1
    13    25    26    1
    14    26    27    1
    15    27    28    1
    16    28    29    1
    17    21    22   ar
    18    22    23   ar
    19     7     8    1
    20     8     9    1
    21     9    10    1
    22    10    11    1
    23    11    12    1
    24    12    13    1
    25    13    14    1
    26     9    15    1
    27    15    16    1
    28    16     7    1
    29    23    18   ar
    30    14     9    1
    31    29    24    1
    32     3     4    1
@<TRIPOS>MOLECULE
*****
 29 32 0 0 0
SMALL
GASTEIGER

@<TRIPOS>ATOM
      1 C          64.9966   92.0562   13.3777 C.2     1  UNL1        0.2252
      2 O          64.3077   91.7837   14.6818 O.2     1  UNL1       -0.2750
      3 N          64.4040   91.5496   12.0961 N.am    1  UNL1       -0.3004
      4 H          64.8563   91.7285   11.2401 H       1  UNL1        0.1497
      5 C          66.2782   92.8354   13.3549 C.3     1  UNL1        0.1154
      6 C          67.7751   91.5865   12.8760 C.3     1  UNL1        0.0335
      7 C          67.1797   92.7615   12.1584 C.3     1  UNL1        0.1377
      8 C          66.3959   93.9519   11.6909 C.3     1  UNL1        0.0613
      9 C          66.9374   94.3681   10.3553 C.3     1  UNL1        0.1290
     10 C          67.5804   94.6652    9.0332 C.3     1  UNL1        0.0305
     11 C          67.0896   95.8130    8.2016 C.3     1  UNL1        0.0025
     12 C          65.9557   96.6637    8.6921 C.3     1  UNL1        0.0002
     13 C          65.3126   96.3665   10.0143 C.3     1  UNL1        0.0025
     14 C          65.8034   95.2187   10.8459 C.3     1  UNL1        0.0305
     15 O          68.0559   93.4348    9.9974 O.3     1  UNL1       -0.2256
     16 O          68.2057   92.4419   11.1118 O.3     1  UNL1       -0.2251
     17 C          63.1225   90.7705   12.1189 C.3     1  UNL1        0.1163
     18 C          63.1530   89.2818   12.3004 C.ar    1  UNL1       -0.0025
     19 C          63.8627   88.6844   13.4791 C.ar    1  UNL1       -0.0014
     20 C          63.8932   87.1957   13.6607 C.ar    1  UNL1        0.0142
     21 C          63.2140   86.3045   12.6635 C.ar    1  UNL1        0.0480
     22 C          62.5043   86.9019   11.4848 C.ar    1  UNL1        0.0142
     23 C          62.4738   88.3906   11.3032 C.ar    1  UNL1       -0.0014
     24 N          63.2445   84.8158   12.8451 N.pl3   1  UNL1       -0.3028
     25 C          63.6618   84.2292   14.1610 C.3     1  UNL1        0.1231
     26 C          63.6924   82.7405   14.3426 C.3     1  UNL1        0.1636
     27 O          63.3055   81.8385   13.2081 O.3     1  UNL1       -0.3501
     28 C          62.8882   82.4252   11.8922 C.3     1  UNL1        0.1636
     29 C          62.8577   83.9139   11.7107 C.3     1  UNL1        0.1231
@<TRIPOS>BOND
     1     6     7    1
     2     7     5    1
     3     5     1    1
     4     1     2    2
     5     1     3   am
     6     3    17    1
     7    17    18    1
     8    18    19   ar
     9    19    20   ar
    10    20    21   ar
    11    21    24    1
    12    24    25    1
    13    25    26    1
    14    26    27    1
    15    27    28    1
    16    28    29    1
    17    21    22   ar
    18    22    23   ar
    19     7     8    1
    20     8     9    1
    21     9    10    1
    22    10    11    1
    23    11    12    1
    24    12    13    1
    25    13    14    1
    26     9    15    1
    27    15    16    1
    28    16     7    1
    29    23    18   ar
    30    14     9    1
    31    29    24    1
    32     3     4    1
@<TRIPOS>MOLECULE
*****
 29 32 0 0 0
SMALL
GASTEIGER

@<TRIPOS>ATOM
      1 C          61.7336   87.5981   10.0634 C.2     1  UNL1        0.2252
      2 O          62.9034   88.1287    9.2890 O.2     1  UNL1       -0.2750
      3 N          60.9017   88.5277   10.8964 N.am    1  UNL1       -0.3004
      4 H          60.1338   88.1794   11.4047 H       1  UNL1        0.1497
      5 C          61.3956   86.1378   10.0049 C.3     1  UNL1        0.1154
      6 C          62.4408   85.4092    8.4537 C.3     1  UNL1        0.0335
      7 C          62.4916   85.1170    9.9240 C.3     1  UNL1        0.1377
      8 C          62.3133   85.0381   11.4113 C.3     1  UNL1        0.0613
      9 C          63.2885   84.0296   11.9423 C.3     1  UNL1        0.1290
     10 C          64.3111   83.0011   12.3249 C.3     1  UNL1        0.0305
     11 C          64.4762   82.6064   13.7626 C.3     1  UNL1        0.0025
     12 C          63.6188   83.2401   14.8176 C.3     1  UNL1        0.0002
     13 C          62.5962   84.2686   14.4350 C.3     1  UNL1        0.0025
     14 C          62.4311   84.6634   12.9974 C.3     1  UNL1        0.0305
     15 O          64.0696   83.4852   10.7832 O.3     1  UNL1       -0.2256
     16 O          63.5771   84.1572    9.5358 O.3     1  UNL1       -0.2251
     17 C          61.2397   89.9879   10.9549 C.3     1  UNL1        0.1163
     18 C          62.4370   90.4501   11.7313 C.ar    1  UNL1       -0.0025
     19 C          63.4107   91.4067   11.1094 C.ar    1  UNL1       -0.0014
     20 C          64.6080   91.8689   11.8858 C.ar    1  UNL1        0.0142
     21 C          64.8317   91.3743   13.2841 C.ar    1  UNL1        0.0480
     22 C          63.8581   90.4177   13.9061 C.ar    1  UNL1        0.0142
     23 C          62.6607   89.9555   13.1297 C.ar    1  UNL1       -0.0014
     24 N          66.0291   91.8365   14.0606 N.pl3   1  UNL1       -0.3028
     25 C          65.8746   92.2749   15.4867 C.3     1  UNL1        0.1231
     26 C          67.0720   92.7370   16.2631 C.3     1  UNL1        0.1636
     27 O          68.4238   92.7608   15.6132 O.3     1  UNL1       -0.3501
     28 C          68.5781   92.3224   14.1870 C.3     1  UNL1        0.1636
     29 C          67.3808   91.8603   13.4107 C.3     1  UNL1        0.1231
@<TRIPOS>BOND
     1     6     7    1
     2     7     5    1
     3     5     1    1
     4     1     2    2
     5     1     3   am
     6     3    17    1
     7    17    18    1
     8    18    19   ar
     9    19    20   ar
    10    20    21   ar
    11    21    24    1
    12    24    25    1
    13    25    26    1
    14    26    27    1
    15    27    28    1
    16    28    29    1
    17    21    22   ar
    18    22    23   ar
    19     7     8    1
    20     8     9    1
    21     9    10    1
    22    10    11    1
    23    11    12    1
    24    12    13    1
    25    13    14    1
    26     9    15    1
    27    15    16    1
    28    16     7    1
    29    23    18   ar
    30    14     9    1
    31    29    24    1
    32     3     4    1
@<TRIPOS>MOLECULE
*****
 29 32 0 0 0
SMALL
GASTEIGER

@<TRIPOS>ATOM
      1 C          64.5034   92.1015   10.8583 C.2     1  UNL1        0.2252
      2 O          63.5303   92.0063    9.7209 O.2     1  UNL1       -0.2750
      3 N          64.2583   91.3306   12.1216 N.am    1  UNL1       -0.3004
      4 H          64.8970   91.3931   12.8682 H       1  UNL1        0.1497
      5 C          65.7217   92.9677   10.7327 C.3     1  UNL1        0.1154
      6 C          67.3227   92.2813    9.7351 C.3     1  UNL1        0.0335
      7 C          67.0537   92.4605   11.1998 C.3     1  UNL1        0.1377
      8 C          66.5063   92.7457   12.5669 C.3     1  UNL1        0.0613
      9 C          67.5563   92.3774   13.5729 C.3     1  UNL1        0.1290
     10 C          68.6964   91.9672   14.4572 C.3     1  UNL1        0.0305
     11 C          68.5718   92.0902   15.9469 C.3     1  UNL1        0.0025
     12 C          67.3072   92.6233   16.5523 C.3     1  UNL1        0.0002
     13 C          66.1672   93.0335   15.6681 C.3     1  UNL1        0.0025
     14 C          66.2917   92.9105   14.1783 C.3     1  UNL1        0.0305
     15 O          68.7527   91.8645   12.8275 O.3     1  UNL1       -0.2256
     16 O          68.4421   91.9159   11.3608 O.3     1  UNL1       -0.2251
     17 C          63.0401   90.4645   12.2472 C.3     1  UNL1        0.1163
     18 C          63.1875   89.0005   12.5385 C.ar    1  UNL1       -0.0025
     19 C          63.9496   88.5497   13.7492 C.ar    1  UNL1       -0.0014
     20 C          64.0970   87.0856   14.0405 C.ar    1  UNL1        0.0142
     21 C          63.4823   86.0724   13.1210 C.ar    1  UNL1        0.0480
     22 C          62.7203   86.5232   11.9103 C.ar    1  UNL1        0.0142
     23 C          62.5728   87.9873   11.6189 C.ar    1  UNL1       -0.0014
     24 N          63.6298   84.6083   13.4123 N.pl3   1  UNL1       -0.3028
     25 C          63.2923   84.0769   14.7737 C.3     1  UNL1        0.1231
     26 C          63.4398   82.6128   15.0650 C.3     1  UNL1        0.1636
     27 O          63.9248   81.6803   13.9948 O.3     1  UNL1       -0.3501
     28 C          64.2623   82.2119   12.6333 C.3     1  UNL1        0.1636
     29 C          64.1148   83.6759   12.3421 C.3     1  UNL1        0.1231
@<TRIPOS>BOND
     1     6     7    1
     2     7     5    1
     3     5     1    1
     4     1     2    2
     5     1     3   am
     6     3    17    1
     7    17    18    1
     8    18    19   ar
     9    19    20   ar
    10    20    21   ar
    11    21    24    1
    12    24    25    1
    13    25    26    1
    14    26    27    1
    15    27    28    1
    16    28    29    1
    17    21    22   ar
    18    22    23   ar
    19     7     8    1
    20     8     9    1
    21     9    10    1
    22    10    11    1
    23    11    12    1
    24    12    13    1
    25    13    14    1
    26     9    15    1
    27    15    16    1
    28    16     7    1
    29    23    18   ar
    30    14     9    1
    31    29    24    1
    32     3     4    1
@<TRIPOS>MOLECULE
*****
 29 32 0 0 0
SMALL
GASTEIGER

@<TRIPOS>ATOM
      1 C          65.5013   92.0545   14.5739 C.2     1  UNL1        0.2252
      2 O          64.7183   92.3290   15.8234 O.2     1  UNL1       -0.2750
      3 N          65.0056   91.0407   13.5856 N.am    1  UNL1       -0.3004
      4 H          65.5196   90.8605   12.7655 H       1  UNL1        0.1497
      5 C          66.7802   92.7937   14.3125 C.3     1  UNL1        0.1154
      6 C          68.2259   91.4542   13.9312 C.3     1  UNL1        0.0335
      7 C          67.5762   92.5009   13.0754 C.3     1  UNL1        0.1377
      8 C          66.7601   93.6087   12.4783 C.3     1  UNL1        0.0613
      9 C          67.1875   93.7819   11.0508 C.3     1  UNL1        0.1290
     10 C          67.7169   93.8382    9.6485 C.3     1  UNL1        0.0305
     11 C          67.1615   94.8369    8.6768 C.3     1  UNL1        0.0025
     12 C          66.0768   95.7792    9.1075 C.3     1  UNL1        0.0002
     13 C          65.5475   95.7229   10.5098 C.3     1  UNL1        0.0025
     14 C          66.1029   94.7243   11.4815 C.3     1  UNL1        0.0305
     15 O          68.2678   92.7810   10.7658 O.3     1  UNL1       -0.2256
     16 O          68.5081   91.9893   12.0171 O.3     1  UNL1       -0.2251
     17 C          63.7268   90.3015   13.8470 C.3     1  UNL1        0.1163
     18 C          62.9608   89.7012   12.7056 C.ar    1  UNL1       -0.0025
     19 C          61.9711   90.5340   11.9461 C.ar    1  UNL1       -0.0014
     20 C          61.2051   89.9337   10.8047 C.ar    1  UNL1        0.0142
     21 C          61.4289   88.5005   10.4228 C.ar    1  UNL1        0.0480
     22 C          62.4185   87.6677   11.1822 C.ar    1  UNL1        0.0142
     23 C          63.1846   88.2680   12.3237 C.ar    1  UNL1       -0.0014
     24 N          60.6628   87.9002    9.2813 N.pl3   1  UNL1       -0.3028
     25 C          59.7681   88.7635    8.4422 C.3     1  UNL1        0.1231
     26 C          59.0021   88.1632    7.3007 C.3     1  UNL1        0.1636
     27 O          59.1308   86.6995    6.9985 O.3     1  UNL1       -0.3501
     28 C          60.0255   85.8362    7.8377 C.3     1  UNL1        0.1636
     29 C          60.7915   86.4366    8.9791 C.3     1  UNL1        0.1231
@<TRIPOS>BOND
     1     6     7    1
     2     7     5    1
     3     5     1    1
     4     1     2    2
     5     1     3   am
     6     3    17    1
     7    17    18    1
     8    18    19   ar
     9    19    20   ar
    10    20    21   ar
    11    21    24    1
    12    24    25    1
    13    25    26    1
    14    26    27    1
    15    27    28    1
    16    28    29    1
    17    21    22   ar
    18    22    23   ar
    19     7     8    1
    20     8     9    1
    21     9    10    1
    22    10    11    1
    23    11    12    1
    24    12    13    1
    25    13    14    1
    26     9    15    1
    27    15    16    1
    28    16     7    1
    29    23    18   ar
    30    14     9    1
    31    29    24    1
    32     3     4    1
