@<TRIPOS>MOLECULE
*****
 34 38 0 0 0
SMALL
GASTEIGER

@<TRIPOS>ATOM
      1 N          63.7195   84.6891   14.8197 N.3     1  UNL1       -0.2724
      2 C          63.5344   83.2038   14.9181 C.3     1  UNL1        0.0724
      3 C          63.1483   82.6939   13.5613 C.3     1  UNL1        0.0214
      4 C          62.7850   82.4854   12.1210 C.3     1  UNL1        0.0072
      5 C          63.0948   83.8640   12.6244 C.3     1  UNL1        0.0350
      6 C          63.4478   85.0971   13.4021 C.3     1  UNL1        0.0761
      7 C          62.8878   84.5603   11.3120 C.ar    1  UNL1       -0.0207
      8 C          63.4925   83.9966   10.0604 C.ar    1  UNL1       -0.0042
      9 C          63.2856   84.6929    8.7479 C.ar    1  UNL1        0.0005
     10 C          62.4739   85.9528    8.6871 C.ar    1  UNL1        0.0149
     11 C          61.8691   86.5165    9.9388 C.ar    1  UNL1        0.1225
     12 C          62.0761   85.8203   11.2512 C.ar    1  UNL1        0.0107
     13 S          61.0575   87.7765    9.8781 S.3     1  UNL1        0.3126
     14 F          60.4489   86.5177   10.4213 F       1  UNL1       -0.0934
     15 F          59.6372   87.7777   10.3605 F       1  UNL1       -0.0934
     16 F          61.6661   89.0352    9.3348 F       1  UNL1       -0.0934
     17 F          60.2458   89.0364    9.8173 F       1  UNL1       -0.0934
     18 F          62.4777   87.7753    9.3956 F       1  UNL1       -0.0934
     19 C          64.1082   85.6054   15.9419 C.3     1  UNL1        0.0730
     20 C          63.0641   86.1121   16.8923 C.3     1  UNL1        0.0294
     21 C          63.1029   87.5371   17.3589 C.3     1  UNL1        0.0666
     22 S          62.4612   88.6139   16.5349 S.3     1  UNL1       -0.0756
     23 C          64.6755   91.2167   14.6945 C.ar    1  UNL1        0.2029
     24 N          64.3795   91.9411   15.9742 N.ar    1  UNL1       -0.1250
     25 N          63.5140   91.0543   16.8194 N.ar    1  UNL1       -0.1220
     26 C          63.2751   89.7818   16.0620 C.ar    1  UNL1        0.1933
     27 N          63.9930   89.8822   14.7488 N.ar    1  UNL1       -0.2860
     28 C          64.0230   88.8323   13.6779 C.3     1  UNL1        0.1341
     29 C          67.8625   91.9086   14.8133 C.3     1  UNL1        0.0556
     30 C          66.9728   92.0538   13.6144 C.ar    1  UNL1        0.1001
     31 N          67.3918   92.5426   12.2595 N.ar    1  UNL1       -0.2085
     32 C          66.1859   92.5266   11.3676 C.ar    1  UNL1        0.2849
     33 O          65.0217   92.0280   12.1712 O.2     1  UNL1       -0.4283
     34 C          65.5080   91.7358   13.5598 C.ar    1  UNL1        0.1964
@<TRIPOS>BOND
     1    29    30    1
     2    30    31   ar
     3    31    32   ar
     4    32    33   ar
     5    33    34   ar
     6    34    23    1
     7    23    24   ar
     8    24    25   ar
     9    25    26   ar
    10    26    22    1
    11    22    21    1
    12    21    20    1
    13    20    19    1
    14    19     1    1
    15     1     2    1
    16     2     3    1
    17     3     4    1
    18     4     5    1
    19     5     7    1
    20     7     8   ar
    21     8     9   ar
    22     9    10   ar
    23    10    11   ar
    24    11    13    1
    25    13    14    1
    26    13    15    1
    27    13    16    1
    28    13    17    1
    29    13    18    1
    30    11    12   ar
    31     5     6    1
    32    26    27   ar
    33    27    28    1
    34    34    30   ar
    35    27    23   ar
    36     6     1    1
    37     5     3    1
    38    12     7   ar
@<TRIPOS>MOLECULE
*****
 34 38 0 0 0
SMALL
GASTEIGER

@<TRIPOS>ATOM
      1 N          63.5309   85.5396   14.4343 N.3     1  UNL1       -0.2724
      2 C          63.3613   84.0928   14.7924 C.3     1  UNL1        0.0724
      3 C          62.9878   83.3473   13.5455 C.3     1  UNL1        0.0214
      4 C          62.6343   82.8841   12.1634 C.3     1  UNL1        0.0072
      5 C          62.9265   84.3333   12.4168 C.3     1  UNL1        0.0350
      6 C          63.2621   85.6882   12.9661 C.3     1  UNL1        0.0761
      7 C          62.7188   84.7849   11.0016 C.ar    1  UNL1       -0.0207
      8 C          63.5072   84.1571    9.8906 C.ar    1  UNL1       -0.0042
      9 C          63.2995   84.6087    8.4753 C.ar    1  UNL1        0.0005
     10 C          62.3034   85.6882    8.1710 C.ar    1  UNL1        0.0149
     11 C          61.5150   86.3160    9.2821 C.ar    1  UNL1        0.1225
     12 C          61.7227   85.8644   10.6973 C.ar    1  UNL1        0.0107
     13 S          60.5190   87.3955    8.9778 S.3     1  UNL1        0.3126
     14 F          60.1069   85.9547    8.9126 F       1  UNL1       -0.0934
     15 F          59.1108   87.0342    8.6083 F       1  UNL1       -0.0934
     16 F          60.9311   88.8363    9.0430 F       1  UNL1       -0.0934
     17 F          59.5229   88.4749    8.6735 F       1  UNL1       -0.0934
     18 F          61.9271   87.7569    9.3473 F       1  UNL1       -0.0934
     19 C          63.9037   86.6438   15.3786 C.3     1  UNL1        0.0730
     20 C          64.5379   87.8976   14.8535 C.3     1  UNL1        0.0294
     21 C          63.8360   89.2143   15.0073 C.3     1  UNL1        0.0666
     22 S          63.6268   90.0967   13.8124 S.3     1  UNL1       -0.0756
     23 C          65.7342   93.0843   12.5092 C.ar    1  UNL1        0.2029
     24 N          66.0660   93.1116   13.9718 N.ar    1  UNL1       -0.1250
     25 N          65.3170   91.9959   14.6380 N.ar    1  UNL1       -0.1220
     26 C          64.5222   91.2789   13.5871 C.ar    1  UNL1        0.1933
     27 N          64.7801   91.9516   12.2715 N.ar    1  UNL1       -0.2860
     28 C          64.1878   91.5602   10.9501 C.3     1  UNL1        0.1341
     29 C          67.7211   92.2941   10.0440 C.3     1  UNL1        0.0556
     30 C          67.1768   93.6615   10.3342 C.ar    1  UNL1        0.1001
     31 N          67.4503   94.9056    9.5422 N.ar    1  UNL1       -0.2085
     32 C          66.7060   96.0377   10.1859 C.ar    1  UNL1        0.2849
     33 O          65.9726   95.4933   11.3756 O.2     1  UNL1       -0.4283
     34 C          66.2636   94.0246   11.4673 C.ar    1  UNL1        0.1964
@<TRIPOS>BOND
     1    29    30    1
     2    30    31   ar
     3    31    32   ar
     4    32    33   ar
     5    33    34   ar
     6    34    23    1
     7    23    24   ar
     8    24    25   ar
     9    25    26   ar
    10    26    22    1
    11    22    21    1
    12    21    20    1
    13    20    19    1
    14    19     1    1
    15     1     2    1
    16     2     3    1
    17     3     4    1
    18     4     5    1
    19     5     7    1
    20     7     8   ar
    21     8     9   ar
    22     9    10   ar
    23    10    11   ar
    24    11    13    1
    25    13    14    1
    26    13    15    1
    27    13    16    1
    28    13    17    1
    29    13    18    1
    30    11    12   ar
    31     5     6    1
    32    26    27   ar
    33    27    28    1
    34    34    30   ar
    35    27    23   ar
    36     6     1    1
    37     5     3    1
    38    12     7   ar
@<TRIPOS>MOLECULE
*****
 34 38 0 0 0
SMALL
GASTEIGER

@<TRIPOS>ATOM
      1 N          60.4805   87.5513   10.5632 N.3     1  UNL1       -0.2724
      2 C          60.5859   87.6790    9.0724 C.3     1  UNL1        0.0724
      3 C          61.5277   86.6196    8.5818 C.3     1  UNL1        0.0214
      4 C          62.4895   85.4839    8.3948 C.3     1  UNL1        0.0072
      5 C          62.0044   85.8372    9.7695 C.3     1  UNL1        0.0350
      6 C          61.3572   86.4130   10.9940 C.3     1  UNL1        0.0761
      7 C          62.7796   84.7727   10.4877 C.ar    1  UNL1       -0.0207
      8 C          63.6922   83.8626    9.7201 C.ar    1  UNL1       -0.0042
      9 C          64.4675   82.7981   10.4384 C.ar    1  UNL1        0.0005
     10 C          64.3302   82.6436   11.9241 C.ar    1  UNL1        0.0149
     11 C          63.4176   83.5538   12.6916 C.ar    1  UNL1        0.1225
     12 C          62.6423   84.6182   11.9734 C.ar    1  UNL1        0.0107
     13 S          63.2803   83.3993   14.1773 S.3     1  UNL1        0.3126
     14 F          64.5845   83.8473   13.5871 F       1  UNL1       -0.0934
     15 F          64.4473   83.6929   15.0729 F       1  UNL1       -0.0934
     16 F          61.9761   82.9514   14.7674 F       1  UNL1       -0.0934
     17 F          63.1431   83.2449   15.6629 F       1  UNL1       -0.0934
     18 F          62.1134   83.1058   13.2817 F       1  UNL1       -0.0934
     19 C          59.6451   88.4110   11.4649 C.3     1  UNL1        0.0730
     20 C          60.2328   89.6472   12.0785 C.3     1  UNL1        0.0294
     21 C          61.6106   90.0952   11.6898 C.3     1  UNL1        0.0666
     22 S          62.7409   89.9802   12.6693 S.3     1  UNL1       -0.0756
     23 C          65.3662   92.7716   12.0527 C.ar    1  UNL1        0.2029
     24 N          65.5031   92.5667   13.5323 N.ar    1  UNL1       -0.1250
     25 N          64.5363   91.4961   13.9434 N.ar    1  UNL1       -0.1220
     26 C          63.8019   91.0393   12.7179 C.ar    1  UNL1        0.1933
     27 N          64.3149   91.8277   11.5494 N.ar    1  UNL1       -0.2860
     28 C          63.8567   91.6952   10.1272 C.3     1  UNL1        0.1341
     29 C          67.8294   92.0443   10.0394 C.3     1  UNL1        0.0556
     30 C          67.2763   93.4147   10.2969 C.ar    1  UNL1        0.1001
     31 N          67.7584   94.6913    9.6742 N.ar    1  UNL1       -0.2085
     32 C          66.9242   95.8146   10.2147 C.ar    1  UNL1        0.2849
     33 O          65.9266   95.2323   11.1715 O.2     1  UNL1       -0.4283
     34 C          66.1442   93.7490   11.2223 C.ar    1  UNL1        0.1964
@<TRIPOS>BOND
     1    29    30    1
     2    30    31   ar
     3    31    32   ar
     4    32    33   ar
     5    33    34   ar
     6    34    23    1
     7    23    24   ar
     8    24    25   ar
     9    25    26   ar
    10    26    22    1
    11    22    21    1
    12    21    20    1
    13    20    19    1
    14    19     1    1
    15     1     2    1
    16     2     3    1
    17     3     4    1
    18     4     5    1
    19     5     7    1
    20     7     8   ar
    21     8     9   ar
    22     9    10   ar
    23    10    11   ar
    24    11    13    1
    25    13    14    1
    26    13    15    1
    27    13    16    1
    28    13    17    1
    29    13    18    1
    30    11    12   ar
    31     5     6    1
    32    26    27   ar
    33    27    28    1
    34    34    30   ar
    35    27    23   ar
    36     6     1    1
    37     5     3    1
    38    12     7   ar
@<TRIPOS>MOLECULE
*****
 34 38 0 0 0
SMALL
GASTEIGER

@<TRIPOS>ATOM
      1 N          60.5407   87.5938   10.5002 N.3     1  UNL1       -0.2724
      2 C          60.7042   87.6643    9.0108 C.3     1  UNL1        0.0724
      3 C          61.6505   86.5767    8.5963 C.3     1  UNL1        0.0214
      4 C          62.6043   85.4241    8.4885 C.3     1  UNL1        0.0072
      5 C          62.0719   85.8341    9.8295 C.3     1  UNL1        0.0350
      6 C          61.3860   86.4627   11.0062 C.3     1  UNL1        0.0761
      7 C          62.8059   84.7887   10.6159 C.ar    1  UNL1       -0.0207
      8 C          63.6723   83.7891    9.9089 C.ar    1  UNL1       -0.0042
      9 C          64.4064   82.7436   10.6953 C.ar    1  UNL1        0.0005
     10 C          64.2739   82.6979   12.1887 C.ar    1  UNL1        0.0149
     11 C          63.4074   83.6977   12.8958 C.ar    1  UNL1        0.1225
     12 C          62.6734   84.7430   12.1094 C.ar    1  UNL1        0.0107
     13 S          63.2749   83.6519   14.3892 S.3     1  UNL1        0.3126
     14 F          64.3651   84.4658   13.7575 F       1  UNL1       -0.0934
     15 F          64.2327   84.4201   15.2510 F       1  UNL1       -0.0934
     16 F          62.1848   82.8380   15.0208 F       1  UNL1       -0.0934
     17 F          63.1425   83.6062   15.8826 F       1  UNL1       -0.0934
     18 F          62.3172   82.8837   13.5275 F       1  UNL1       -0.0934
     19 C          59.6826   88.4960   11.3366 C.3     1  UNL1        0.0730
     20 C          60.2715   89.7285   11.9564 C.3     1  UNL1        0.0294
     21 C          61.1743   90.6149   11.1507 C.3     1  UNL1        0.0666
     22 S          62.6357   90.2952   11.0402 S.3     1  UNL1       -0.0756
     23 C          65.2175   91.1648   13.8049 C.ar    1  UNL1        0.2029
     24 N          64.5444   89.9655   14.4037 N.ar    1  UNL1       -0.1250
     25 N          63.4954   89.4938   13.4410 N.ar    1  UNL1       -0.1220
     26 C          63.5201   90.4015   12.2471 C.ar    1  UNL1        0.1933
     27 N          64.5844   91.4342   12.4721 N.ar    1  UNL1       -0.2860
     28 C          64.9512   92.5420   11.5295 C.3     1  UNL1        0.1341
     29 C          68.2208   91.5456   12.5865 C.3     1  UNL1        0.0556
     30 C          67.7090   92.1308   13.8693 C.ar    1  UNL1        0.1001
     31 N          68.4878   92.9937   14.8173 N.ar    1  UNL1       -0.2085
     32 C          67.5887   93.3520   15.9632 C.ar    1  UNL1        0.2849
     33 O          66.2543   92.7105   15.7235 O.2     1  UNL1       -0.4283
     34 C          66.3286   91.9557   14.4293 C.ar    1  UNL1        0.1964
@<TRIPOS>BOND
     1    29    30    1
     2    30    31   ar
     3    31    32   ar
     4    32    33   ar
     5    33    34   ar
     6    34    23    1
     7    23    24   ar
     8    24    25   ar
     9    25    26   ar
    10    26    22    1
    11    22    21    1
    12    21    20    1
    13    20    19    1
    14    19     1    1
    15     1     2    1
    16     2     3    1
    17     3     4    1
    18     4     5    1
    19     5     7    1
    20     7     8   ar
    21     8     9   ar
    22     9    10   ar
    23    10    11   ar
    24    11    13    1
    25    13    14    1
    26    13    15    1
    27    13    16    1
    28    13    17    1
    29    13    18    1
    30    11    12   ar
    31     5     6    1
    32    26    27   ar
    33    27    28    1
    34    34    30   ar
    35    27    23   ar
    36     6     1    1
    37     5     3    1
    38    12     7   ar
@<TRIPOS>MOLECULE
*****
 34 38 0 0 0
SMALL
GASTEIGER

@<TRIPOS>ATOM
      1 N          61.3537   86.3240    9.6310 N.3     1  UNL1       -0.2724
      2 C          62.2935   85.8754    8.5513 C.3     1  UNL1        0.0724
      3 C          63.1392   84.7667    9.1041 C.3     1  UNL1        0.0214
      4 C          63.8181   83.7054    9.9181 C.3     1  UNL1        0.0072
      5 C          62.7221   84.5301   10.5254 C.3     1  UNL1        0.0350
      6 C          61.6186   85.4925   10.8510 C.3     1  UNL1        0.0761
      7 C          62.7579   83.8710   11.8723 C.ar    1  UNL1       -0.0207
      8 C          62.6524   82.3786   11.9800 C.ar    1  UNL1       -0.0042
      9 C          62.6882   81.7194   13.3271 C.ar    1  UNL1        0.0005
     10 C          62.8295   82.5528   14.5663 C.ar    1  UNL1        0.0149
     11 C          62.9350   84.0452   14.4585 C.ar    1  UNL1        0.1225
     12 C          62.8992   84.7043   13.1115 C.ar    1  UNL1        0.0107
     13 S          63.0763   84.8786   15.6977 S.3     1  UNL1        0.3126
     14 F          64.2859   84.5462   14.8754 F       1  UNL1       -0.0934
     15 F          64.4272   85.3795   16.1146 F       1  UNL1       -0.0934
     16 F          61.8666   85.2109   16.5199 F       1  UNL1       -0.0934
     17 F          63.2175   85.7118   16.9368 F       1  UNL1       -0.0934
     18 F          61.7253   84.3776   15.2808 F       1  UNL1       -0.0934
     19 C          60.3290   87.4129    9.5116 C.3     1  UNL1        0.0730
     20 C          60.2902   88.5205   10.5224 C.3     1  UNL1        0.0294
     21 C          61.4119   89.5141   10.5896 C.3     1  UNL1        0.0666
     22 S          61.9827   89.9120   11.9185 S.3     1  UNL1       -0.0756
     23 C          65.1946   91.9019   12.8068 C.ar    1  UNL1        0.2029
     24 N          65.0597   92.2072   11.3444 N.ar    1  UNL1       -0.1250
     25 N          63.8401   91.4990   10.8337 N.ar    1  UNL1       -0.1220
     26 C          63.2213   90.7559   11.9804 C.ar    1  UNL1        0.1933
     27 N          64.0584   91.0050   13.1998 N.ar    1  UNL1       -0.2860
     28 C          63.8040   90.4538   14.5716 C.3     1  UNL1        0.1341
     29 C          68.4066   91.5661   12.3376 C.3     1  UNL1        0.0556
     30 C          67.7523   92.2509   13.5008 C.ar    1  UNL1        0.1001
     31 N          68.4595   92.9015   14.6525 N.ar    1  UNL1       -0.2085
     32 C          67.4202   93.4580   15.5800 C.ar    1  UNL1        0.2849
     33 O          66.0708   93.1513   15.0015 O.2     1  UNL1       -0.4283
     34 C          66.2760   92.4052   13.7165 C.ar    1  UNL1        0.1964
@<TRIPOS>BOND
     1    29    30    1
     2    30    31   ar
     3    31    32   ar
     4    32    33   ar
     5    33    34   ar
     6    34    23    1
     7    23    24   ar
     8    24    25   ar
     9    25    26   ar
    10    26    22    1
    11    22    21    1
    12    21    20    1
    13    20    19    1
    14    19     1    1
    15     1     2    1
    16     2     3    1
    17     3     4    1
    18     4     5    1
    19     5     7    1
    20     7     8   ar
    21     8     9   ar
    22     9    10   ar
    23    10    11   ar
    24    11    13    1
    25    13    14    1
    26    13    15    1
    27    13    16    1
    28    13    17    1
    29    13    18    1
    30    11    12   ar
    31     5     6    1
    32    26    27   ar
    33    27    28    1
    34    34    30   ar
    35    27    23   ar
    36     6     1    1
    37     5     3    1
    38    12     7   ar
@<TRIPOS>MOLECULE
*****
 34 38 0 0 0
SMALL
GASTEIGER

@<TRIPOS>ATOM
      1 N          61.1852   86.9326    9.7224 N.3     1  UNL1       -0.2724
      2 C          61.9833   86.4605    8.5434 C.3     1  UNL1        0.0724
      3 C          62.8448   85.3183    8.9941 C.3     1  UNL1        0.0214
      4 C          63.5713   84.2272    9.7232 C.3     1  UNL1        0.0072
      5 C          62.5793   85.0845   10.4518 C.3     1  UNL1        0.0350
      6 C          61.5536   86.0822   10.9019 C.3     1  UNL1        0.0761
      7 C          62.7403   84.4134   11.7835 C.ar    1  UNL1       -0.0207
      8 C          63.2726   85.1865   12.9535 C.ar    1  UNL1       -0.0042
      9 C          63.4336   84.5154   14.2854 C.ar    1  UNL1        0.0005
     10 C          63.0623   83.0711   14.4472 C.ar    1  UNL1        0.0149
     11 C          62.5299   82.2979   13.2771 C.ar    1  UNL1        0.1225
     12 C          62.3689   82.9691   11.9453 C.ar    1  UNL1        0.0107
     13 S          62.1586   80.8536   13.4389 S.3     1  UNL1        0.3126
     14 F          61.6280   81.8766   14.3991 F       1  UNL1       -0.0934
     15 F          61.2567   80.4323   14.5609 F       1  UNL1       -0.0934
     16 F          62.6892   79.8308   12.4786 F       1  UNL1       -0.0934
     17 F          61.7873   79.4094   13.6007 F       1  UNL1       -0.0934
     18 F          63.0605   81.2750   12.3168 F       1  UNL1       -0.0934
     19 C          60.1931   88.0576    9.7221 C.3     1  UNL1        0.0730
     20 C          60.1086   88.9835   10.8992 C.3     1  UNL1        0.0294
     21 C          61.1793   90.0096   11.1246 C.3     1  UNL1        0.0666
     22 S          62.2754   89.7450   12.1138 S.3     1  UNL1       -0.0756
     23 C          65.3951   91.8686   13.0208 C.ar    1  UNL1        0.2029
     24 N          65.1331   92.3239   11.6158 N.ar    1  UNL1       -0.1250
     25 N          63.9326   91.5838   11.1050 N.ar    1  UNL1       -0.1220
     26 C          63.4526   90.6711   12.1944 C.ar    1  UNL1        0.1933
     27 N          64.3566   90.8472   13.3783 N.ar    1  UNL1       -0.2860
     28 C          64.2420   90.1280   14.6897 C.3     1  UNL1        0.1341
     29 C          68.5927   91.5706   12.4406 C.3     1  UNL1        0.0556
     30 C          67.9712   92.2133   13.6451 C.ar    1  UNL1        0.1001
     31 N          68.7105   92.8319   14.7944 N.ar    1  UNL1       -0.2085
     32 C          67.6977   93.3511   15.7713 C.ar    1  UNL1        0.2849
     33 O          66.3325   93.0535   15.2259 O.2     1  UNL1       -0.4283
     34 C          66.5016   92.3503   13.9118 C.ar    1  UNL1        0.1964
@<TRIPOS>BOND
     1    29    30    1
     2    30    31   ar
     3    31    32   ar
     4    32    33   ar
     5    33    34   ar
     6    34    23    1
     7    23    24   ar
     8    24    25   ar
     9    25    26   ar
    10    26    22    1
    11    22    21    1
    12    21    20    1
    13    20    19    1
    14    19     1    1
    15     1     2    1
    16     2     3    1
    17     3     4    1
    18     4     5    1
    19     5     7    1
    20     7     8   ar
    21     8     9   ar
    22     9    10   ar
    23    10    11   ar
    24    11    13    1
    25    13    14    1
    26    13    15    1
    27    13    16    1
    28    13    17    1
    29    13    18    1
    30    11    12   ar
    31     5     6    1
    32    26    27   ar
    33    27    28    1
    34    34    30   ar
    35    27    23   ar
    36     6     1    1
    37     5     3    1
    38    12     7   ar
@<TRIPOS>MOLECULE
*****
 34 38 0 0 0
SMALL
GASTEIGER

@<TRIPOS>ATOM
      1 N          60.8099   87.3953   10.4231 N.3     1  UNL1       -0.2724
      2 C          61.3193   87.1306    9.0373 C.3     1  UNL1        0.0724
      3 C          62.2424   85.9499    9.1004 C.3     1  UNL1        0.0214
      4 C          63.0963   84.7732    9.4693 C.3     1  UNL1        0.0072
      5 C          62.3035   85.4849   10.5252 C.3     1  UNL1        0.0350
      6 C          61.4181   86.3781   11.3426 C.3     1  UNL1        0.0761
      7 C          62.7460   84.6166   11.6654 C.ar    1  UNL1       -0.0207
      8 C          63.3842   85.2339   12.8743 C.ar    1  UNL1       -0.0042
      9 C          63.8268   84.3655   14.0147 C.ar    1  UNL1        0.0005
     10 C          63.6310   82.8799   13.9460 C.ar    1  UNL1        0.0149
     11 C          62.9926   82.2627   12.7370 C.ar    1  UNL1        0.1225
     12 C          62.5502   83.1310   11.5968 C.ar    1  UNL1        0.0107
     13 S          62.7968   80.7771   12.6684 S.3     1  UNL1        0.3126
     14 F          62.8429   81.4668   13.9996 F       1  UNL1       -0.0934
     15 F          62.6471   79.9812   13.9309 F       1  UNL1       -0.0934
     16 F          62.7508   80.0875   11.3371 F       1  UNL1       -0.0934
     17 F          62.6011   79.2916   12.5997 F       1  UNL1       -0.0934
     18 F          62.9466   81.5730   11.4058 F       1  UNL1       -0.0934
     19 C          59.8592   88.4856   10.8198 C.3     1  UNL1        0.0730
     20 C          60.2875   89.5326   11.8048 C.3     1  UNL1        0.0294
     21 C          61.5935   90.2468   11.6197 C.3     1  UNL1        0.0666
     22 S          62.6667   90.1294   12.6612 S.3     1  UNL1       -0.0756
     23 C          65.4194   92.7941   12.0391 C.ar    1  UNL1        0.2029
     24 N          65.5715   92.5588   13.5127 N.ar    1  UNL1       -0.1250
     25 N          64.5589   91.5320   13.9251 N.ar    1  UNL1       -0.1220
     26 C          63.7809   91.1326   12.7064 C.ar    1  UNL1        0.1933
     27 N          64.3128   91.9127   11.5408 N.ar    1  UNL1       -0.2860
     28 C          63.8238   91.8263   10.1253 C.3     1  UNL1        0.1341
     29 C          67.8285   91.9781    9.9945 C.3     1  UNL1        0.0556
     30 C          67.3388   93.3690   10.2697 C.ar    1  UNL1        0.1001
     31 N          67.8704   94.6290    9.6534 N.ar    1  UNL1       -0.2085
     32 C          67.0916   95.7827   10.2123 C.ar    1  UNL1        0.2849
     33 O          66.0787   95.2358   11.1739 O.2     1  UNL1       -0.4283
     34 C          66.2315   93.7440   11.2094 C.ar    1  UNL1        0.1964
@<TRIPOS>BOND
     1    29    30    1
     2    30    31   ar
     3    31    32   ar
     4    32    33   ar
     5    33    34   ar
     6    34    23    1
     7    23    24   ar
     8    24    25   ar
     9    25    26   ar
    10    26    22    1
    11    22    21    1
    12    21    20    1
    13    20    19    1
    14    19     1    1
    15     1     2    1
    16     2     3    1
    17     3     4    1
    18     4     5    1
    19     5     7    1
    20     7     8   ar
    21     8     9   ar
    22     9    10   ar
    23    10    11   ar
    24    11    13    1
    25    13    14    1
    26    13    15    1
    27    13    16    1
    28    13    17    1
    29    13    18    1
    30    11    12   ar
    31     5     6    1
    32    26    27   ar
    33    27    28    1
    34    34    30   ar
    35    27    23   ar
    36     6     1    1
    37     5     3    1
    38    12     7   ar
@<TRIPOS>MOLECULE
*****
 34 38 0 0 0
SMALL
GASTEIGER

@<TRIPOS>ATOM
      1 N          63.9655   85.7695   14.2218 N.3     1  UNL1       -0.2724
      2 C          64.3519   84.3209   14.1750 C.3     1  UNL1        0.0724
      3 C          63.8503   83.7488   12.8823 C.3     1  UNL1        0.0214
      4 C          63.2412   83.4673   11.5408 C.3     1  UNL1        0.0072
      5 C          63.1538   84.8438   12.1301 C.3     1  UNL1        0.0350
      6 C          63.2251   86.0927   12.9580 C.3     1  UNL1        0.0761
      7 C          62.3951   85.4548   10.9895 C.ar    1  UNL1       -0.0207
      8 C          61.4630   86.6034   11.2386 C.ar    1  UNL1       -0.0042
      9 C          60.7042   87.2144   10.0980 C.ar    1  UNL1        0.0005
     10 C          60.8775   86.6769    8.7083 C.ar    1  UNL1        0.0149
     11 C          61.8097   85.5283    8.4593 C.ar    1  UNL1        0.1225
     12 C          62.5685   84.9173    9.5999 C.ar    1  UNL1        0.0107
     13 S          61.9831   84.9908    7.0697 S.3     1  UNL1        0.3126
     14 F          63.1839   85.2339    7.9351 F       1  UNL1       -0.0934
     15 F          63.3573   84.6963    6.5455 F       1  UNL1       -0.0934
     16 F          60.7823   84.7477    6.2044 F       1  UNL1       -0.0934
     17 F          62.1565   84.4533    5.6802 F       1  UNL1       -0.0934
     18 F          60.6089   85.2852    7.5939 F       1  UNL1       -0.0934
     19 C          64.2667   86.7268   15.3366 C.3     1  UNL1        0.0730
     20 C          63.8069   88.1517   15.2464 C.3     1  UNL1        0.0294
     21 C          64.3973   89.0664   14.2145 C.3     1  UNL1        0.0666
     22 S          63.7232   90.3669   13.8914 S.3     1  UNL1       -0.0756
     23 C          65.2062   92.6293   11.1080 C.ar    1  UNL1        0.2029
     24 N          64.1313   91.9063   10.3518 N.ar    1  UNL1       -0.1250
     25 N          63.4450   90.9709   11.3024 N.ar    1  UNL1       -0.1220
     26 C          64.0956   91.1157   12.6462 C.ar    1  UNL1        0.1933
     27 N          65.1841   92.1407   12.5260 N.ar    1  UNL1       -0.2860
     28 C          66.0913   92.5969   13.6300 C.3     1  UNL1        0.1341
     29 C          68.1005   92.0423    9.7194 C.3     1  UNL1        0.0556
     30 C          67.4696   93.3903    9.9068 C.ar    1  UNL1        0.1001
     31 N          68.0584   94.7050    9.4888 N.ar    1  UNL1       -0.2085
     32 C          67.0919   95.7874    9.8687 C.ar    1  UNL1        0.2849
     33 O          65.9059   95.1416   10.5215 O.2     1  UNL1       -0.4283
     34 C          66.1393   93.6601   10.5450 C.ar    1  UNL1        0.1964
@<TRIPOS>BOND
     1    29    30    1
     2    30    31   ar
     3    31    32   ar
     4    32    33   ar
     5    33    34   ar
     6    34    23    1
     7    23    24   ar
     8    24    25   ar
     9    25    26   ar
    10    26    22    1
    11    22    21    1
    12    21    20    1
    13    20    19    1
    14    19     1    1
    15     1     2    1
    16     2     3    1
    17     3     4    1
    18     4     5    1
    19     5     7    1
    20     7     8   ar
    21     8     9   ar
    22     9    10   ar
    23    10    11   ar
    24    11    13    1
    25    13    14    1
    26    13    15    1
    27    13    16    1
    28    13    17    1
    29    13    18    1
    30    11    12   ar
    31     5     6    1
    32    26    27   ar
    33    27    28    1
    34    34    30   ar
    35    27    23   ar
    36     6     1    1
    37     5     3    1
    38    12     7   ar
@<TRIPOS>MOLECULE
*****
 34 38 0 0 0
SMALL
GASTEIGER

@<TRIPOS>ATOM
      1 N          63.9006   87.0472   15.1848 N.3     1  UNL1       -0.2724
      2 C          63.5077   86.1206   16.2969 C.3     1  UNL1        0.0724
      3 C          63.2483   84.7677   15.7033 C.3     1  UNL1        0.0214
      4 C          63.0631   83.5556   14.8394 C.3     1  UNL1        0.0072
      5 C          63.4810   84.8582   14.2242 C.3     1  UNL1        0.0350
      6 C          63.8841   86.2670   13.9038 C.3     1  UNL1        0.0761
      7 C          63.5519   84.3503   12.8146 C.ar    1  UNL1       -0.0207
      8 C          64.2483   83.0553   12.5182 C.ar    1  UNL1       -0.0042
      9 C          64.3192   82.5473   11.1085 C.ar    1  UNL1        0.0005
     10 C          63.6937   83.3345    9.9953 C.ar    1  UNL1        0.0149
     11 C          62.9973   84.6296   10.2918 C.ar    1  UNL1        0.1225
     12 C          62.9264   85.1375   11.7014 C.ar    1  UNL1        0.0107
     13 S          62.3718   85.4168    9.1786 S.3     1  UNL1        0.3126
     14 F          63.6545   84.6753    8.9442 F       1  UNL1       -0.0934
     15 F          63.0290   85.4625    7.8311 F       1  UNL1       -0.0934
     16 F          61.0892   86.1582    9.4131 F       1  UNL1       -0.0934
     17 F          61.7464   86.2039    8.0655 F       1  UNL1       -0.0934
     18 F          61.7146   85.3711   10.5262 F       1  UNL1       -0.0934
     19 C          64.2488   88.4992   15.3284 C.3     1  UNL1        0.0730
     20 C          63.3026   89.5504   14.8289 C.3     1  UNL1        0.0294
     21 C          63.8067   90.6571   13.9508 C.3     1  UNL1        0.0666
     22 S          65.2483   91.0667   14.0135 S.3     1  UNL1       -0.0756
     23 C          66.0787   94.2328   11.9275 C.ar    1  UNL1        0.2029
     24 N          66.5896   94.6342   13.2795 N.ar    1  UNL1       -0.1250
     25 N          66.3408   93.4971   14.2254 N.ar    1  UNL1       -0.1220
     26 C          65.6760   92.3929   13.4581 C.ar    1  UNL1        0.1933
     27 N          65.5141   92.8476   12.0379 N.ar    1  UNL1       -0.2860
     28 C          64.8960   92.0560   10.9237 C.3     1  UNL1        0.1341
     29 C          67.9032   93.6455    9.2863 C.3     1  UNL1        0.0556
     30 C          66.9630   94.7998    9.4696 C.ar    1  UNL1        0.1001
     31 N          66.6964   95.8868    8.4709 N.ar    1  UNL1       -0.2085
     32 C          65.6930   96.8286    9.0677 C.ar    1  UNL1        0.2849
     33 O          65.3395   96.3237   10.4351 O.2     1  UNL1       -0.4283
     34 C          66.1244   95.0698   10.6835 C.ar    1  UNL1        0.1964
@<TRIPOS>BOND
     1    29    30    1
     2    30    31   ar
     3    31    32   ar
     4    32    33   ar
     5    33    34   ar
     6    34    23    1
     7    23    24   ar
     8    24    25   ar
     9    25    26   ar
    10    26    22    1
    11    22    21    1
    12    21    20    1
    13    20    19    1
    14    19     1    1
    15     1     2    1
    16     2     3    1
    17     3     4    1
    18     4     5    1
    19     5     7    1
    20     7     8   ar
    21     8     9   ar
    22     9    10   ar
    23    10    11   ar
    24    11    13    1
    25    13    14    1
    26    13    15    1
    27    13    16    1
    28    13    17    1
    29    13    18    1
    30    11    12   ar
    31     5     6    1
    32    26    27   ar
    33    27    28    1
    34    34    30   ar
    35    27    23   ar
    36     6     1    1
    37     5     3    1
    38    12     7   ar
