@<TRIPOS>MOLECULE
*****
 16 17 0 0 0
SMALL
GASTEIGER

@<TRIPOS>ATOM
      1 C          63.9084   83.9017   12.5907 C.ar    1  UNL1        0.1387
      2 C          64.5409   83.0668   11.5170 C.ar    1  UNL1        0.0369
      3 C          64.1482   83.2659   10.0831 C.ar    1  UNL1        0.0032
      4 C          63.1231   84.2999    9.7229 C.ar    1  UNL1        0.0033
      5 C          62.4907   85.1349   10.7965 C.ar    1  UNL1        0.0402
      6 C          62.8834   84.9358   12.2305 C.ar    1  UNL1        0.0400
      7 C          61.4655   86.1690   10.4363 C.ar    1  UNL1        0.1770
      8 C          60.8330   86.3514    9.0885 C.ar    1  UNL1        0.0642
      9 C          59.8695   87.4974    9.1798 C.ar    1  UNL1        0.1438
     10 N          59.9066   88.0233   10.5841 N.ar    1  UNL1       -0.0753
     11 O          60.8930   87.2024   11.3607 O.2     1  UNL1       -0.3533
     12 O          64.3011   83.7026   14.0246 O.3     1  UNL1       -0.4755
     13 C          63.4980   82.7891   14.9023 C.3     1  UNL1        0.2054
     14 C          62.0917   82.4301   14.5235 C.3     1  UNL1        0.0473
     15 C          62.4981   80.4189   12.9297 C.3     1  UNL1        0.0001
     16 C          61.7662   81.0325   14.0864 C.3     1  UNL1        0.0038
@<TRIPOS>BOND
     1    15    16    1
     2    16    14    1
     3    14    13    1
     4    13    12    1
     5    12     1    1
     6     1     2   ar
     7     2     3   ar
     8     3     4   ar
     9     4     5   ar
    10     5     7    1
    11     7     8   ar
    12     8     9   ar
    13     9    10   ar
    14    10    11   ar
    15     5     6   ar
    16     6     1   ar
    17    11     7   ar
@<TRIPOS>MOLECULE
*****
 16 17 0 0 0
SMALL
GASTEIGER

@<TRIPOS>ATOM
      1 C          61.8964   86.3851   10.3431 C.ar    1  UNL1        0.1387
      2 C          62.4888   86.1141    8.9920 C.ar    1  UNL1        0.0369
      3 C          63.2743   84.8583    8.7557 C.ar    1  UNL1        0.0032
      4 C          63.4675   83.8735    9.8705 C.ar    1  UNL1        0.0033
      5 C          62.8751   84.1445   11.2216 C.ar    1  UNL1        0.0402
      6 C          62.0895   85.4003   11.4579 C.ar    1  UNL1        0.0400
      7 C          63.0682   83.1597   12.3365 C.ar    1  UNL1        0.1770
      8 C          62.6184   81.7287   12.3367 C.ar    1  UNL1        0.0642
      9 C          63.0172   81.1176   13.6472 C.ar    1  UNL1        0.1438
     10 N          63.7134   82.1709   14.4570 N.ar    1  UNL1       -0.0753
     11 O          63.7449   83.4330   13.6470 O.2     1  UNL1       -0.3533
     12 O          61.1108   87.6409   10.5794 O.3     1  UNL1       -0.4755
     13 C          61.1762   88.7643    9.5876 C.3     1  UNL1        0.2054
     14 C          59.9826   89.0847    8.7375 C.3     1  UNL1        0.0473
     15 C          58.9989   86.8284    7.9060 C.3     1  UNL1        0.0001
     16 C          59.5972   88.1720    7.6112 C.3     1  UNL1        0.0038
@<TRIPOS>BOND
     1    15    16    1
     2    16    14    1
     3    14    13    1
     4    13    12    1
     5    12     1    1
     6     1     2   ar
     7     2     3   ar
     8     3     4   ar
     9     4     5   ar
    10     5     7    1
    11     7     8   ar
    12     8     9   ar
    13     9    10   ar
    14    10    11   ar
    15     5     6   ar
    16     6     1   ar
    17    11     7   ar
@<TRIPOS>MOLECULE
*****
 16 17 0 0 0
SMALL
GASTEIGER

@<TRIPOS>ATOM
      1 C          66.1839   93.1391   12.6287 C.ar    1  UNL1        0.1387
      2 C          66.7411   92.6923   13.9477 C.ar    1  UNL1        0.0369
      3 C          66.1322   91.5218   14.6614 C.ar    1  UNL1        0.0032
      4 C          64.9660   90.7983   14.0561 C.ar    1  UNL1        0.0033
      5 C          64.4088   91.2451   12.7371 C.ar    1  UNL1        0.0402
      6 C          65.0178   92.4155   12.0234 C.ar    1  UNL1        0.0400
      7 C          63.2426   90.5215   12.1317 C.ar    1  UNL1        0.1770
      8 C          62.8926   90.4776   10.6737 C.ar    1  UNL1        0.0642
      9 C          61.6554   89.6438   10.5189 C.ar    1  UNL1        0.1438
     10 N          61.2407   89.1724   11.8812 N.ar    1  UNL1       -0.0753
     11 O          62.2216   89.7149   12.8779 O.2     1  UNL1       -0.3533
     12 O          66.7929   94.3095   11.9150 O.3     1  UNL1       -0.4755
     13 C          66.5108   94.5292   10.4583 C.3     1  UNL1        0.2054
     14 C          67.6351   94.5106    9.4655 C.3     1  UNL1        0.0473
     15 C          68.3853   92.0437    9.7843 C.3     1  UNL1        0.0001
     16 C          68.1002   93.2087    8.8834 C.3     1  UNL1        0.0038
@<TRIPOS>BOND
     1    15    16    1
     2    16    14    1
     3    14    13    1
     4    13    12    1
     5    12     1    1
     6     1     2   ar
     7     2     3   ar
     8     3     4   ar
     9     4     5   ar
    10     5     7    1
    11     7     8   ar
    12     8     9   ar
    13     9    10   ar
    14    10    11   ar
    15     5     6   ar
    16     6     1   ar
    17    11     7   ar
@<TRIPOS>MOLECULE
*****
 16 17 0 0 0
SMALL
GASTEIGER

@<TRIPOS>ATOM
      1 C          63.0379   84.2599   11.2191 C.ar    1  UNL1        0.1387
      2 C          63.4523   83.9458    9.8121 C.ar    1  UNL1        0.0369
      3 C          63.1550   84.9168    8.7082 C.ar    1  UNL1        0.0032
      4 C          62.4433   86.2020    9.0112 C.ar    1  UNL1        0.0033
      5 C          62.0289   86.5160   10.4182 C.ar    1  UNL1        0.0402
      6 C          62.3262   85.5450   11.5221 C.ar    1  UNL1        0.0400
      7 C          61.3171   87.8012   10.7213 C.ar    1  UNL1        0.1770
      8 C          61.6286   89.1429   10.1271 C.ar    1  UNL1        0.0642
      9 C          60.6730   90.1412   10.7103 C.ar    1  UNL1        0.1438
     10 N          59.7709   89.4165   11.6649 N.ar    1  UNL1       -0.0753
     11 O          60.1691   87.9704   11.6717 O.2     1  UNL1       -0.3533
     12 O          63.3353   83.2888   12.3230 O.3     1  UNL1       -0.4755
     13 C          62.8167   83.5449   13.7070 C.3     1  UNL1        0.2054
     14 C          62.2081   82.4258   14.4989 C.3     1  UNL1        0.0473
     15 C          62.3442   80.0950   13.3590 C.3     1  UNL1        0.0001
     16 C          61.5391   81.2842   13.7921 C.3     1  UNL1        0.0038
@<TRIPOS>BOND
     1    15    16    1
     2    16    14    1
     3    14    13    1
     4    13    12    1
     5    12     1    1
     6     1     2   ar
     7     2     3   ar
     8     3     4   ar
     9     4     5   ar
    10     5     7    1
    11     7     8   ar
    12     8     9   ar
    13     9    10   ar
    14    10    11   ar
    15     5     6   ar
    16     6     1   ar
    17    11     7   ar
@<TRIPOS>MOLECULE
*****
 16 17 0 0 0
SMALL
GASTEIGER

@<TRIPOS>ATOM
      1 C          63.8149   83.7663   12.8257 C.ar    1  UNL1        0.1387
      2 C          64.5112   82.9482   11.7789 C.ar    1  UNL1        0.0369
      3 C          64.2099   83.1744   10.3270 C.ar    1  UNL1        0.0032
      4 C          63.2123   84.2188    9.9219 C.ar    1  UNL1        0.0033
      5 C          62.5160   85.0369   10.9687 C.ar    1  UNL1        0.0402
      6 C          62.8173   84.8106   12.4206 C.ar    1  UNL1        0.0400
      7 C          61.5183   86.0813   10.5636 C.ar    1  UNL1        0.1770
      8 C          60.9970   86.3114    9.1760 C.ar    1  UNL1        0.0642
      9 C          60.0233   87.4512    9.2298 C.ar    1  UNL1        0.1438
     10 N          59.9430   87.9255   10.6506 N.ar    1  UNL1       -0.0753
     11 O          60.8669   87.0788   11.4749 O.2     1  UNL1       -0.3533
     12 O          64.1162   83.5401   14.2776 O.3     1  UNL1       -0.4755
     13 C          63.5352   84.4541   15.3154 C.3     1  UNL1        0.2054
     14 C          64.1472   85.8025   15.5545 C.3     1  UNL1        0.0473
     15 C          62.5633   86.2834   17.5571 C.3     1  UNL1        0.0001
     16 C          63.4751   86.7788   16.4740 C.3     1  UNL1        0.0038
@<TRIPOS>BOND
     1    15    16    1
     2    16    14    1
     3    14    13    1
     4    13    12    1
     5    12     1    1
     6     1     2   ar
     7     2     3   ar
     8     3     4   ar
     9     4     5   ar
    10     5     7    1
    11     7     8   ar
    12     8     9   ar
    13     9    10   ar
    14    10    11   ar
    15     5     6   ar
    16     6     1   ar
    17    11     7   ar
@<TRIPOS>MOLECULE
*****
 16 17 0 0 0
SMALL
GASTEIGER

@<TRIPOS>ATOM
      1 C          62.8143   84.8952   10.2732 C.ar    1  UNL1        0.1387
      2 C          63.7322   83.7655    9.9112 C.ar    1  UNL1        0.0369
      3 C          64.4586   83.0149   10.9878 C.ar    1  UNL1        0.0032
      4 C          64.2670   83.3940   12.4264 C.ar    1  UNL1        0.0033
      5 C          63.3490   84.5237   12.7884 C.ar    1  UNL1        0.0402
      6 C          62.6227   85.2743   11.7118 C.ar    1  UNL1        0.0400
      7 C          63.1574   84.9029   14.2270 C.ar    1  UNL1        0.1770
      8 C          64.1537   85.6183   15.0905 C.ar    1  UNL1        0.0642
      9 C          63.5479   85.7908   16.4518 C.ar    1  UNL1        0.1438
     10 N          62.1772   85.1819   16.4297 N.ar    1  UNL1       -0.0753
     11 O          61.9358   84.6332   15.0547 O.2     1  UNL1       -0.3533
     12 O          62.0879   85.6458    9.1967 O.3     1  UNL1       -0.4755
     13 C          60.9023   86.4962    9.5445 C.3     1  UNL1        0.2054
     14 C          60.0140   87.0252    8.4577 C.3     1  UNL1        0.0473
     15 C          59.4038   89.0794    6.9886 C.3     1  UNL1        0.0001
     16 C          59.8022   88.5033    8.3151 C.3     1  UNL1        0.0038
@<TRIPOS>BOND
     1    15    16    1
     2    16    14    1
     3    14    13    1
     4    13    12    1
     5    12     1    1
     6     1     2   ar
     7     2     3   ar
     8     3     4   ar
     9     4     5   ar
    10     5     7    1
    11     7     8   ar
    12     8     9   ar
    13     9    10   ar
    14    10    11   ar
    15     5     6   ar
    16     6     1   ar
    17    11     7   ar
@<TRIPOS>MOLECULE
*****
 16 17 0 0 0
SMALL
GASTEIGER

@<TRIPOS>ATOM
      1 C          61.7219   86.5601   10.3597 C.ar    1  UNL1        0.1387
      2 C          62.3074   86.3338    8.9974 C.ar    1  UNL1        0.0369
      3 C          63.1290   85.1080    8.7283 C.ar    1  UNL1        0.0032
      4 C          63.3652   84.1086    9.8216 C.ar    1  UNL1        0.0033
      5 C          62.7797   84.3349   11.1840 C.ar    1  UNL1        0.0402
      6 C          61.9581   85.5607   11.4530 C.ar    1  UNL1        0.0400
      7 C          63.0159   83.3355   12.2773 C.ar    1  UNL1        0.1770
      8 C          63.5827   81.9574   12.1048 C.ar    1  UNL1        0.0642
      9 C          63.6438   81.3089   13.4560 C.ar    1  UNL1        0.1438
     10 N          63.1148   82.2861   14.4636 N.ar    1  UNL1       -0.0753
     11 O          62.7268   83.5386   13.7351 O.2     1  UNL1       -0.3533
     12 O          60.9003   87.7859   10.6287 O.3     1  UNL1       -0.4755
     13 C          61.2644   89.0896    9.9824 C.3     1  UNL1        0.2054
     14 C          62.5520   89.7706   10.3409 C.3     1  UNL1        0.0473
     15 C          63.4433   89.0989   12.6870 C.3     1  UNL1        0.0001
     16 C          62.8419   90.1223   11.7700 C.3     1  UNL1        0.0038
@<TRIPOS>BOND
     1    15    16    1
     2    16    14    1
     3    14    13    1
     4    13    12    1
     5    12     1    1
     6     1     2   ar
     7     2     3   ar
     8     3     4   ar
     9     4     5   ar
    10     5     7    1
    11     7     8   ar
    12     8     9   ar
    13     9    10   ar
    14    10    11   ar
    15     5     6   ar
    16     6     1   ar
    17    11     7   ar
@<TRIPOS>MOLECULE
*****
 16 17 0 0 0
SMALL
GASTEIGER

@<TRIPOS>ATOM
      1 C          65.4447   92.4915   11.9119 C.ar    1  UNL1        0.1387
      2 C          64.6260   92.2971   10.6702 C.ar    1  UNL1        0.0369
      3 C          63.5376   91.2653   10.6433 C.ar    1  UNL1        0.0032
      4 C          63.2679   90.4279   11.8581 C.ar    1  UNL1        0.0033
      5 C          64.0866   90.6222   13.0998 C.ar    1  UNL1        0.0402
      6 C          65.1750   91.6540   13.1267 C.ar    1  UNL1        0.0400
      7 C          63.8170   89.7847   14.3148 C.ar    1  UNL1        0.1770
      8 C          63.4615   90.2983   15.6785 C.ar    1  UNL1        0.0642
      9 C          63.2803   89.1177   16.5858 C.ar    1  UNL1        0.1438
     10 N          63.5237   87.8743   15.7828 N.ar    1  UNL1       -0.0753
     11 O          63.8554   88.2866   14.3792 O.2     1  UNL1       -0.3533
     12 O          66.5331   93.5233   11.9387 O.3     1  UNL1       -0.4755
     13 C          66.5070   94.6665   10.9680 C.3     1  UNL1        0.2054
     14 C          67.4931   94.7141    9.8387 C.3     1  UNL1        0.0473
     15 C          68.7925   92.5134    9.3714 C.3     1  UNL1        0.0001
     16 C          67.7248   93.4968    8.9934 C.3     1  UNL1        0.0038
@<TRIPOS>BOND
     1    15    16    1
     2    16    14    1
     3    14    13    1
     4    13    12    1
     5    12     1    1
     6     1     2   ar
     7     2     3   ar
     8     3     4   ar
     9     4     5   ar
    10     5     7    1
    11     7     8   ar
    12     8     9   ar
    13     9    10   ar
    14    10    11   ar
    15     5     6   ar
    16     6     1   ar
    17    11     7   ar
@<TRIPOS>MOLECULE
*****
 16 17 0 0 0
SMALL
GASTEIGER

@<TRIPOS>ATOM
      1 C          64.1674   90.6180   14.7266 C.ar    1  UNL1        0.1387
      2 C          63.5943   90.8208   16.0979 C.ar    1  UNL1        0.0369
      3 C          63.2024   89.6358   16.9298 C.ar    1  UNL1        0.0032
      4 C          63.3837   88.2479   16.3906 C.ar    1  UNL1        0.0033
      5 C          63.9568   88.0451   15.0193 C.ar    1  UNL1        0.0402
      6 C          64.3487   89.2301   14.1874 C.ar    1  UNL1        0.0400
      7 C          64.1381   86.6571   14.4800 C.ar    1  UNL1        0.1770
      8 C          65.0578   85.6093   15.0334 C.ar    1  UNL1        0.0642
      9 C          64.9197   84.3779   14.1880 C.ar    1  UNL1        0.1438
     10 N          63.9145   84.6647   13.1121 N.ar    1  UNL1       -0.0753
     11 O          63.4315   86.0733   13.2926 O.2     1  UNL1       -0.3533
     12 O          64.5593   91.8030   13.8947 O.3     1  UNL1       -0.4755
     13 C          66.0023   92.1973   13.7838 C.3     1  UNL1        0.2054
     14 C          66.5744   93.2200   14.7202 C.3     1  UNL1        0.0473
     15 C          68.6320   92.4603   16.1127 C.3     1  UNL1        0.0001
     16 C          67.1711   92.7893   16.0273 C.3     1  UNL1        0.0038
@<TRIPOS>BOND
     1    15    16    1
     2    16    14    1
     3    14    13    1
     4    13    12    1
     5    12     1    1
     6     1     2   ar
     7     2     3   ar
     8     3     4   ar
     9     4     5   ar
    10     5     7    1
    11     7     8   ar
    12     8     9   ar
    13     9    10   ar
    14    10    11   ar
    15     5     6   ar
    16     6     1   ar
    17    11     7   ar
