@<TRIPOS>MOLECULE
*****
 47 50 0 0 0
SMALL
GASTEIGER

@<TRIPOS>ATOM
      1 C          60.7127   89.1818    9.5063 C.3     1  UNL1        0.0759
      2 C          59.3622   89.0331    7.2917 C.2     1  UNL1        0.2242
      3 O          58.7243   87.7612    7.7661 O.2     1  UNL1       -0.2750
      4 N          60.3565   89.7435    8.1618 N.am    1  UNL1       -0.3056
      5 H          60.7752   90.5783    7.8504 H       1  UNL1        0.1494
      6 C          59.0060   89.5948    5.9472 C.3     1  UNL1        0.1063
      7 C          58.6631   91.0484    5.8086 C.3     1  UNL1        0.1005
      8 C          62.0474   92.7443    2.2490 C.3     1  UNL1        0.1168
      9 N          60.6367   92.6140    2.7420 N.am    1  UNL1       -0.2578
     10 C          60.3552   91.8964    4.0288 C.2     1  UNL1        0.3043
     11 O          61.4844   91.3092    4.8226 O.2     1  UNL1       -0.2526
     12 N          58.9446   91.7660    4.5218 N.am    1  UNL1       -0.2883
     13 H          58.2034   92.1514    4.0008 H       1  UNL1        0.1510
     14 C          59.5075   93.2012    1.9482 C.3     1  UNL1        0.1297
     15 C          59.6818   93.4716    0.4831 C.ar    1  UNL1        0.0479
     16 C          59.7011   92.4419   -0.6074 C.ar    1  UNL1        0.1033
     17 N          59.8986   93.1532   -1.9132 N.ar    1  UNL1       -0.2350
     18 C          60.0014   94.6226   -1.6297 C.ar    1  UNL1        0.1343
     19 S          59.8674   94.8194   -0.1487 S.2     1  UNL1       -0.0671
     20 C          60.2864   87.7918    9.8753 C.3     1  UNL1        0.0459
     21 C          61.2898   86.6769    9.8834 C.ar    1  UNL1       -0.0205
     22 C          62.0240   86.3195    8.6252 C.ar    1  UNL1       -0.0042
     23 C          63.0275   85.2046    8.6334 C.ar    1  UNL1       -0.0003
     24 C          63.2967   84.4471    9.8997 C.ar    1  UNL1       -0.0000
     25 C          62.5625   84.8045   11.1580 C.ar    1  UNL1       -0.0003
     26 C          61.5590   85.9194   11.1499 C.ar    1  UNL1       -0.0042
     27 C          61.4951   90.0102   10.4818 C.3     1  UNL1        0.0216
     28 C          61.5291   89.6284   11.9319 C.3     1  UNL1        0.0217
     29 C          62.8191   89.6936   12.6947 C.3     1  UNL1        0.0792
     30 N          63.5894   88.4373   12.9744 N.am    1  UNL1       -0.2720
     31 C          63.9679   88.0875   14.3831 C.2     1  UNL1        0.4019
     32 O          63.5760   88.9940   15.5121 O.2     1  UNL1       -0.2264
     33 H          63.8466   87.8423   12.2333 H       1  UNL1        0.1527
     34 O          64.7382   86.8312   14.6628 O.3     1  UNL1       -0.4291
     35 C          64.1421   85.7636   15.5315 C.3     1  UNL1        0.2447
     36 C          63.7264   84.4533   14.9311 C.ar    1  UNL1        0.0714
     37 C          64.5373   83.6215   13.9821 C.ar    1  UNL1        0.1053
     38 N          63.7388   82.3990   13.6387 N.ar    1  UNL1       -0.2350
     39 C          62.4345   82.4752   14.3755 C.ar    1  UNL1        0.1343
     40 S          62.4268   83.7448   15.1742 S.2     1  UNL1       -0.0652
     41 C          63.3387   91.0152   13.1778 C.3     1  UNL1        0.0460
     42 C          64.5860   91.5949   12.5792 C.ar    1  UNL1       -0.0205
     43 C          64.6113   91.9866   11.1315 C.ar    1  UNL1       -0.0042
     44 C          65.8586   92.5663   10.5331 C.ar    1  UNL1       -0.0003
     45 C          67.0807   92.7541   11.3823 C.ar    1  UNL1       -0.0000
     46 C          67.0555   92.3624   12.8300 C.ar    1  UNL1       -0.0003
     47 C          65.8081   91.7827   13.4285 C.ar    1  UNL1       -0.0042
@<TRIPOS>BOND
     1     8     9    1
     2     9    14    1
     3    14    15    1
     4    15    16   ar
     5    16    17   ar
     6    17    18   ar
     7    18    19   ar
     8     9    10   am
     9    10    11    2
    10    10    12   am
    11    12     7    1
    12     7     6    1
    13     6     2    1
    14     2     3    2
    15     2     4   am
    16     4     1    1
    17     1    27    1
    18    27    28    1
    19    29    28    1
    20    29    41    1
    21    41    42    1
    22    42    43   ar
    23    43    44   ar
    24    44    45   ar
    25    45    46   ar
    26    46    47   ar
    27    29    30    1
    28    30    31   am
    29    31    32    2
    30    31    34    1
    31    34    35    1
    32    35    36    1
    33    36    37   ar
    34    37    38   ar
    35    38    39   ar
    36    39    40   ar
    37     1    20    1
    38    20    21    1
    39    21    22   ar
    40    22    23   ar
    41    23    24   ar
    42    24    25   ar
    43    25    26   ar
    44    19    15   ar
    45    47    42   ar
    46    40    36   ar
    47    26    21   ar
    48    12    13    1
    49     4     5    1
    50    30    33    1
@<TRIPOS>MOLECULE
*****
 47 50 0 0 0
SMALL
GASTEIGER

@<TRIPOS>ATOM
      1 C          60.7723   88.6146   10.0773 C.3     1  UNL1        0.0759
      2 C          59.5456   88.5641    7.7876 C.2     1  UNL1        0.2242
      3 O          58.7945   87.3388    8.2170 O.2     1  UNL1       -0.2750
      4 N          60.5345   89.2020    8.7177 N.am    1  UNL1       -0.3056
      5 H          61.0275   90.0062    8.4358 H       1  UNL1        0.1494
      6 C          59.3078   89.1515    6.4280 C.3     1  UNL1        0.1063
      7 C          59.4085   90.6340    6.2234 C.3     1  UNL1        0.1005
      8 C          59.8003   93.5809    1.9617 C.3     1  UNL1        0.1168
      9 N          60.4252   92.6546    2.9625 N.am    1  UNL1       -0.2578
     10 C          59.6045   92.1074    4.0926 C.2     1  UNL1        0.3043
     11 O          58.1589   92.4867    4.2219 O.2     1  UNL1       -0.2526
     12 N          60.2292   91.1811    5.0934 N.am    1  UNL1       -0.2883
     13 H          61.1780   90.9322    5.0085 H       1  UNL1        0.1510
     14 C          61.8706   92.2754    2.8332 C.3     1  UNL1        0.1297
     15 C          62.7355   92.9537    1.8125 C.ar    1  UNL1        0.0479
     16 C          62.5380   92.9185    0.3259 C.ar    1  UNL1        0.1033
     17 N          63.6302   93.7293   -0.3062 N.ar    1  UNL1       -0.2350
     18 C          64.5028   94.2657    0.7896 C.ar    1  UNL1        0.1343
     19 S          63.9499   93.7863    2.0990 S.2     1  UNL1       -0.0671
     20 C          60.4670   87.1685   10.3333 C.3     1  UNL1        0.0459
     21 C          61.5324   86.1309   10.1372 C.ar    1  UNL1       -0.0205
     22 C          62.1666   85.9525    8.7896 C.ar    1  UNL1       -0.0042
     23 C          63.2320   84.9150    8.5935 C.ar    1  UNL1       -0.0003
     24 C          63.6632   84.0558    9.7449 C.ar    1  UNL1       -0.0000
     25 C          63.0290   84.2342   11.0926 C.ar    1  UNL1       -0.0003
     26 C          61.9636   85.2717   11.2887 C.ar    1  UNL1       -0.0042
     27 C          61.3154   89.4733   11.1807 C.3     1  UNL1        0.0216
     28 C          62.7852   89.7644   11.2503 C.3     1  UNL1        0.0217
     29 C          63.4627   89.8899   12.5827 C.3     1  UNL1        0.0792
     30 N          63.7871   88.6601   13.3779 N.am    1  UNL1       -0.2720
     31 C          63.3755   88.5676   14.8174 C.2     1  UNL1        0.4019
     32 O          62.6396   89.7048   15.4617 O.2     1  UNL1       -0.2264
     33 H          64.2701   87.9137   12.9551 H       1  UNL1        0.1527
     34 O          63.6999   87.3378   15.6126 O.3     1  UNL1       -0.4291
     35 C          64.5224   86.2435   14.9995 C.3     1  UNL1        0.2447
     36 C          63.9515   84.8632   14.8624 C.ar    1  UNL1        0.0714
     37 C          64.6622   83.6667   14.3025 C.ar    1  UNL1        0.1053
     38 N          63.7197   82.5010   14.3551 N.ar    1  UNL1       -0.2350
     39 C          62.4264   82.9770   14.9475 C.ar    1  UNL1        0.1343
     40 S          62.5697   84.4369   15.2610 S.2     1  UNL1       -0.0652
     41 C          63.8159   91.2451   13.1199 C.3     1  UNL1        0.0460
     42 C          65.2403   91.5690   13.4608 C.ar    1  UNL1       -0.0205
     43 C          65.7276   91.4148   14.8710 C.ar    1  UNL1       -0.0042
     44 C          67.1520   91.7387   15.2119 C.ar    1  UNL1       -0.0003
     45 C          68.0891   92.2166   14.1426 C.ar    1  UNL1       -0.0000
     46 C          67.6018   92.3707   12.7324 C.ar    1  UNL1       -0.0003
     47 C          66.1774   92.0469   12.3915 C.ar    1  UNL1       -0.0042
@<TRIPOS>BOND
     1     8     9    1
     2     9    14    1
     3    14    15    1
     4    15    16   ar
     5    16    17   ar
     6    17    18   ar
     7    18    19   ar
     8     9    10   am
     9    10    11    2
    10    10    12   am
    11    12     7    1
    12     7     6    1
    13     6     2    1
    14     2     3    2
    15     2     4   am
    16     4     1    1
    17     1    27    1
    18    27    28    1
    19    29    28    1
    20    29    41    1
    21    41    42    1
    22    42    43   ar
    23    43    44   ar
    24    44    45   ar
    25    45    46   ar
    26    46    47   ar
    27    29    30    1
    28    30    31   am
    29    31    32    2
    30    31    34    1
    31    34    35    1
    32    35    36    1
    33    36    37   ar
    34    37    38   ar
    35    38    39   ar
    36    39    40   ar
    37     1    20    1
    38    20    21    1
    39    21    22   ar
    40    22    23   ar
    41    23    24   ar
    42    24    25   ar
    43    25    26   ar
    44    19    15   ar
    45    47    42   ar
    46    40    36   ar
    47    26    21   ar
    48    12    13    1
    49     4     5    1
    50    30    33    1
@<TRIPOS>MOLECULE
*****
 47 50 0 0 0
SMALL
GASTEIGER

@<TRIPOS>ATOM
      1 C          61.4393   89.0542   10.2216 C.3     1  UNL1        0.0759
      2 C          59.8460   88.6542    8.2087 C.2     1  UNL1        0.2242
      3 O          59.1128   87.6095    8.9967 O.2     1  UNL1       -0.2750
      4 N          61.0093   89.3766    8.8212 N.am    1  UNL1       -0.3056
      5 H          61.4905   90.0623    8.3040 H       1  UNL1        0.1494
      6 C          59.4160   88.9765    6.8083 C.3     1  UNL1        0.1063
      7 C          59.2426   90.4057    6.3872 C.3     1  UNL1        0.1005
      8 C          59.8497   93.7001    2.4150 C.3     1  UNL1        0.1168
      9 N          60.3940   92.6186    3.3006 N.am    1  UNL1       -0.2578
     10 C          59.5462   92.0528    4.4011 C.2     1  UNL1        0.3043
     11 O          58.1541   92.5685    4.6160 O.2     1  UNL1       -0.2526
     12 N          60.0904   90.9715    5.2867 N.am    1  UNL1       -0.2883
     13 H          61.0041   90.6330    5.1457 H       1  UNL1        0.1510
     14 C          61.7861   92.1030    3.0857 C.3     1  UNL1        0.1297
     15 C          62.6686   92.7350    2.0504 C.ar    1  UNL1        0.0479
     16 C          62.4099   92.7690    0.5733 C.ar    1  UNL1        0.1033
     17 N          63.5461   93.4990   -0.0796 N.ar    1  UNL1       -0.2350
     18 C          64.5070   93.9162    0.9941 C.ar    1  UNL1        0.1343
     19 S          63.9646   93.4440    2.3105 S.2     1  UNL1       -0.0671
     20 C          61.0601   87.7408   10.8390 C.3     1  UNL1        0.0459
     21 C          61.8759   86.5147   10.5540 C.ar    1  UNL1       -0.0205
     22 C          62.2196   85.5675   11.6651 C.ar    1  UNL1       -0.0042
     23 C          63.0355   84.3415   11.3801 C.ar    1  UNL1       -0.0003
     24 C          63.5076   84.0627    9.9839 C.ar    1  UNL1       -0.0000
     25 C          63.1639   85.0099    8.8727 C.ar    1  UNL1       -0.0003
     26 C          62.3481   86.2359    9.1577 C.ar    1  UNL1       -0.0042
     27 C          62.2484   90.0452   11.0046 C.3     1  UNL1        0.0216
     28 C          63.1664   89.5715   12.0922 C.3     1  UNL1        0.0217
     29 C          63.8310   90.5651   12.9984 C.3     1  UNL1        0.0792
     30 N          64.6833   91.6553   12.4195 N.am    1  UNL1       -0.2720
     31 C          66.0106   91.9785   13.0391 C.2     1  UNL1        0.4019
     32 O          66.4855   91.2117   14.2375 O.2     1  UNL1       -0.2264
     33 H          64.3715   92.1586   11.6329 H       1  UNL1        0.1527
     34 O          66.8629   93.0687   12.4602 O.3     1  UNL1       -0.4291
     35 C          66.2241   94.3158   11.9248 C.3     1  UNL1        0.2447
     36 C          66.5961   94.8240   10.5634 C.ar    1  UNL1        0.0714
     37 C          67.2348   94.0233    9.4675 C.ar    1  UNL1        0.1053
     38 N          67.4282   94.9265    8.2857 N.ar    1  UNL1       -0.2350
     39 C          66.9091   96.2856    8.6512 C.ar    1  UNL1        0.1343
     40 S          66.3948   96.2221   10.0589 S.2     1  UNL1       -0.0652
     41 C          63.6433   90.4685   14.4835 C.3     1  UNL1        0.0460
     42 C          63.6437   89.1265   15.1538 C.ar    1  UNL1       -0.0205
     43 C          62.9796   88.9543   16.4877 C.ar    1  UNL1       -0.0042
     44 C          62.9800   87.6124   17.1579 C.ar    1  UNL1       -0.0003
     45 C          63.6445   86.4428   16.4943 C.ar    1  UNL1       -0.0000
     46 C          64.3085   86.6150   15.1604 C.ar    1  UNL1       -0.0003
     47 C          64.3081   87.9569   14.4901 C.ar    1  UNL1       -0.0042
@<TRIPOS>BOND
     1     8     9    1
     2     9    14    1
     3    14    15    1
     4    15    16   ar
     5    16    17   ar
     6    17    18   ar
     7    18    19   ar
     8     9    10   am
     9    10    11    2
    10    10    12   am
    11    12     7    1
    12     7     6    1
    13     6     2    1
    14     2     3    2
    15     2     4   am
    16     4     1    1
    17     1    27    1
    18    27    28    1
    19    29    28    1
    20    29    41    1
    21    41    42    1
    22    42    43   ar
    23    43    44   ar
    24    44    45   ar
    25    45    46   ar
    26    46    47   ar
    27    29    30    1
    28    30    31   am
    29    31    32    2
    30    31    34    1
    31    34    35    1
    32    35    36    1
    33    36    37   ar
    34    37    38   ar
    35    38    39   ar
    36    39    40   ar
    37     1    20    1
    38    20    21    1
    39    21    22   ar
    40    22    23   ar
    41    23    24   ar
    42    24    25   ar
    43    25    26   ar
    44    19    15   ar
    45    47    42   ar
    46    40    36   ar
    47    26    21   ar
    48    12    13    1
    49     4     5    1
    50    30    33    1
@<TRIPOS>MOLECULE
*****
 47 50 0 0 0
SMALL
GASTEIGER

@<TRIPOS>ATOM
      1 C          64.0504   89.3747   14.4772 C.3     1  UNL1        0.0759
      2 C          62.7721   88.3835   16.5103 C.2     1  UNL1        0.2242
      3 O          61.6224   89.3076   16.2381 O.2     1  UNL1       -0.2750
      4 N          63.9861   88.4170   15.6298 N.am    1  UNL1       -0.3056
      5 H          64.7407   87.8104   15.8085 H       1  UNL1        0.1494
      6 C          62.7078   87.4257   17.6630 C.3     1  UNL1        0.1063
      7 C          62.0746   86.0779   17.4837 C.3     1  UNL1        0.1005
      8 C          65.1349   84.1879   13.7337 C.3     1  UNL1        0.1168
      9 N          63.7668   84.3944   14.3132 N.am    1  UNL1       -0.2578
     10 C          63.6047   85.1329   15.6087 C.2     1  UNL1        0.3043
     11 O          64.8107   85.6650   16.3247 O.2     1  UNL1       -0.2526
     12 N          62.2367   85.3393   16.1882 N.am    1  UNL1       -0.2883
     13 H          61.4452   84.9901   15.7183 H       1  UNL1        0.1510
     14 C          62.5609   83.8623   13.5972 C.3     1  UNL1        0.1297
     15 C          62.4815   82.4074   13.2409 C.ar    1  UNL1        0.0479
     16 C          62.8988   81.7949   11.9368 C.ar    1  UNL1        0.1033
     17 N          62.6460   80.3185   12.0161 N.ar    1  UNL1       -0.2350
     18 C          62.0724   80.0185   13.3692 C.ar    1  UNL1        0.1343
     19 S          61.9707   81.3095   14.1262 S.2     1  UNL1       -0.0671
     20 C          64.1490   90.8497   14.7322 C.3     1  UNL1        0.0459
     21 C          65.4945   91.5013   14.8545 C.ar    1  UNL1       -0.0205
     22 C          66.5081   91.3402   13.7606 C.ar    1  UNL1       -0.0042
     23 C          67.8536   91.9918   13.8829 C.ar    1  UNL1       -0.0003
     24 C          68.1855   92.8046   15.0991 C.ar    1  UNL1       -0.0000
     25 C          67.1719   92.9657   16.1931 C.ar    1  UNL1       -0.0003
     26 C          65.8264   92.3141   16.0708 C.ar    1  UNL1       -0.0042
     27 C          64.0161   88.8576   13.0696 C.3     1  UNL1        0.0216
     28 C          62.7226   88.3837   12.4761 C.3     1  UNL1        0.0217
     29 C          62.3384   88.7983   11.0866 C.3     1  UNL1        0.0792
     30 N          63.1906   89.7762   10.3332 N.am    1  UNL1       -0.2720
     31 C          63.3282   91.1863   10.8258 C.2     1  UNL1        0.4019
     32 O          62.6136   91.6186   12.0718 O.2     1  UNL1       -0.2264
     33 H          63.6596   89.4925    9.5154 H       1  UNL1        0.1527
     34 O          64.1803   92.1642   10.0723 O.3     1  UNL1       -0.4291
     35 C          65.1471   93.0413   10.8111 C.3     1  UNL1        0.2447
     36 C          66.5219   93.2743   10.2581 C.ar    1  UNL1        0.0714
     37 C          67.0850   94.5947    9.8227 C.ar    1  UNL1        0.1053
     38 N          68.4860   94.3643    9.3389 N.ar    1  UNL1       -0.2350
     39 C          68.7888   92.9015    9.4753 C.ar    1  UNL1        0.1343
     40 S          67.5749   92.2279   10.0434 S.2     1  UNL1       -0.0652
     41 C          61.1022   88.2352   10.4507 C.3     1  UNL1        0.0460
     42 C          61.2189   87.1989    9.3724 C.ar    1  UNL1       -0.0205
     43 C          60.0498   86.9131    8.4771 C.ar    1  UNL1       -0.0042
     44 C          60.1666   85.8769    7.3990 C.ar    1  UNL1       -0.0003
     45 C          61.4524   85.1264    7.2161 C.ar    1  UNL1       -0.0000
     46 C          62.6215   85.4121    8.1114 C.ar    1  UNL1       -0.0003
     47 C          62.5047   86.4484    9.1895 C.ar    1  UNL1       -0.0042
@<TRIPOS>BOND
     1     8     9    1
     2     9    14    1
     3    14    15    1
     4    15    16   ar
     5    16    17   ar
     6    17    18   ar
     7    18    19   ar
     8     9    10   am
     9    10    11    2
    10    10    12   am
    11    12     7    1
    12     7     6    1
    13     6     2    1
    14     2     3    2
    15     2     4   am
    16     4     1    1
    17     1    27    1
    18    27    28    1
    19    29    28    1
    20    29    41    1
    21    41    42    1
    22    42    43   ar
    23    43    44   ar
    24    44    45   ar
    25    45    46   ar
    26    46    47   ar
    27    29    30    1
    28    30    31   am
    29    31    32    2
    30    31    34    1
    31    34    35    1
    32    35    36    1
    33    36    37   ar
    34    37    38   ar
    35    38    39   ar
    36    39    40   ar
    37     1    20    1
    38    20    21    1
    39    21    22   ar
    40    22    23   ar
    41    23    24   ar
    42    24    25   ar
    43    25    26   ar
    44    19    15   ar
    45    47    42   ar
    46    40    36   ar
    47    26    21   ar
    48    12    13    1
    49     4     5    1
    50    30    33    1
@<TRIPOS>MOLECULE
*****
 47 50 0 0 0
SMALL
GASTEIGER

@<TRIPOS>ATOM
      1 C          63.8686   89.3435   14.0663 C.3     1  UNL1        0.0759
      2 C          62.8638   88.5686   16.3335 C.2     1  UNL1        0.2242
      3 O          61.6352   89.3874   16.0689 O.2     1  UNL1       -0.2750
      4 N          63.9806   88.5466   15.3322 N.am    1  UNL1       -0.3056
      5 H          64.7870   88.0092   15.5059 H       1  UNL1        0.1494
      6 C          62.9758   87.7718   17.5994 C.3     1  UNL1        0.1063
      7 C          62.4401   86.3718   17.6542 C.3     1  UNL1        0.1005
      8 C          64.9644   84.1998   13.6654 C.3     1  UNL1        0.1168
      9 N          63.6915   84.4378   14.4226 N.am    1  UNL1       -0.2578
     10 C          63.7022   85.2858   15.6598 C.2     1  UNL1        0.3043
     11 O          64.9858   85.8957   16.1400 O.2     1  UNL1       -0.2526
     12 N          62.4294   85.5238   16.4169 N.am    1  UNL1       -0.2883
     13 H          61.5870   85.1235   16.1018 H       1  UNL1        0.1510
     14 C          62.4080   83.8279   13.9424 C.3     1  UNL1        0.1297
     15 C          62.3884   82.4103   13.4525 C.ar    1  UNL1        0.0479
     16 C          62.8817   81.9312   12.1195 C.ar    1  UNL1        0.1033
     17 N          62.6702   80.4477   12.0527 N.ar    1  UNL1       -0.2350
     18 C          62.0461   80.0099   13.3446 C.ar    1  UNL1        0.1343
     19 S          61.8720   81.2229   14.2097 S.2     1  UNL1       -0.0671
     20 C          64.0119   90.8362   14.1045 C.3     1  UNL1        0.0459
     21 C          65.3221   91.4541   14.4939 C.ar    1  UNL1       -0.0205
     22 C          65.4786   92.0938   15.8415 C.ar    1  UNL1       -0.0042
     23 C          66.7887   92.7118   16.2309 C.ar    1  UNL1       -0.0003
     24 C          67.9425   92.6900   15.2725 C.ar    1  UNL1       -0.0000
     25 C          67.7860   92.0502   13.9248 C.ar    1  UNL1       -0.0003
     26 C          66.4758   91.4323   13.5355 C.ar    1  UNL1       -0.0042
     27 C          63.6134   88.6477   12.7622 C.3     1  UNL1        0.0216
     28 C          62.8862   89.3612   11.6613 C.3     1  UNL1        0.0217
     29 C          62.2536   88.5776   10.5495 C.3     1  UNL1        0.0792
     30 N          61.5370   89.2918    9.4421 N.am    1  UNL1       -0.2720
     31 C          60.0378   89.3437    9.4297 C.2     1  UNL1        0.4019
     32 O          59.2554   88.6813   10.5247 O.2     1  UNL1       -0.2264
     33 H          62.0505   89.7265    8.7233 H       1  UNL1        0.1527
     34 O          59.3212   90.0578    8.3223 O.3     1  UNL1       -0.4291
     35 C          59.5096   89.6178    6.9007 C.3     1  UNL1        0.2447
     36 C          59.2975   90.5917    5.7797 C.ar    1  UNL1        0.0714
     37 C          57.9786   91.1522    5.3365 C.ar    1  UNL1        0.1053
     38 N          58.2330   92.0830    4.1880 N.ar    1  UNL1       -0.2350
     39 C          59.7090   92.0977    3.9215 C.ar    1  UNL1        0.1343
     40 S          60.3669   91.1761    4.9052 S.2     1  UNL1       -0.0652
     41 C          62.3376   87.0800   10.5452 C.3     1  UNL1        0.0460
     42 C          62.0635   86.3171    9.2831 C.ar    1  UNL1       -0.0205
     43 C          60.6743   86.2749    8.7189 C.ar    1  UNL1       -0.0042
     44 C          60.4002   85.5119    7.4569 C.ar    1  UNL1       -0.0003
     45 C          61.5154   84.7912    6.7590 C.ar    1  UNL1       -0.0000
     46 C          62.9046   84.8334    7.3232 C.ar    1  UNL1       -0.0003
     47 C          63.1786   85.5963    8.5852 C.ar    1  UNL1       -0.0042
@<TRIPOS>BOND
     1     8     9    1
     2     9    14    1
     3    14    15    1
     4    15    16   ar
     5    16    17   ar
     6    17    18   ar
     7    18    19   ar
     8     9    10   am
     9    10    11    2
    10    10    12   am
    11    12     7    1
    12     7     6    1
    13     6     2    1
    14     2     3    2
    15     2     4   am
    16     4     1    1
    17     1    27    1
    18    27    28    1
    19    29    28    1
    20    29    41    1
    21    41    42    1
    22    42    43   ar
    23    43    44   ar
    24    44    45   ar
    25    45    46   ar
    26    46    47   ar
    27    29    30    1
    28    30    31   am
    29    31    32    2
    30    31    34    1
    31    34    35    1
    32    35    36    1
    33    36    37   ar
    34    37    38   ar
    35    38    39   ar
    36    39    40   ar
    37     1    20    1
    38    20    21    1
    39    21    22   ar
    40    22    23   ar
    41    23    24   ar
    42    24    25   ar
    43    25    26   ar
    44    19    15   ar
    45    47    42   ar
    46    40    36   ar
    47    26    21   ar
    48    12    13    1
    49     4     5    1
    50    30    33    1
@<TRIPOS>MOLECULE
*****
 47 50 0 0 0
SMALL
GASTEIGER

@<TRIPOS>ATOM
      1 C          62.6083   89.7810   11.6928 C.3     1  UNL1        0.0759
      2 C          63.5516   88.8904   13.9439 C.2     1  UNL1        0.2242
      3 O          62.7564   89.9234   14.6858 O.2     1  UNL1       -0.2750
      4 N          63.4776   88.8192   12.4473 N.am    1  UNL1       -0.3056
      5 H          63.9995   88.1412   11.9604 H       1  UNL1        0.1494
      6 C          64.4209   87.9286   14.6984 C.3     1  UNL1        0.1063
      7 C          63.7997   86.7989   15.4650 C.3     1  UNL1        0.1005
      8 C          61.6050   82.1384   14.7841 C.3     1  UNL1        0.1168
      9 N          62.7617   83.0717   14.5814 N.am    1  UNL1       -0.2578
     10 C          62.7024   84.4686   15.1245 C.2     1  UNL1        0.3043
     11 O          61.4863   84.9323   15.8704 O.2     1  UNL1       -0.2526
     12 N          63.8590   85.4019   14.9218 N.am    1  UNL1       -0.2883
     13 H          64.6571   85.0976   14.4323 H       1  UNL1        0.1510
     14 C          63.9777   82.6080   13.8355 C.3     1  UNL1        0.1297
     15 C          63.8887   82.3080   12.3685 C.ar    1  UNL1        0.0479
     16 C          63.1803   81.1399   11.7489 C.ar    1  UNL1        0.1033
     17 N          63.3462   81.2333   10.2610 N.ar    1  UNL1       -0.2350
     18 C          64.1571   82.4591    9.9611 C.ar    1  UNL1        0.1343
     19 S          64.4923   83.1233   11.2636 S.2     1  UNL1       -0.0671
     20 C          63.2307   90.8080   10.7939 C.3     1  UNL1        0.0459
     21 C          64.2680   91.7474   11.3339 C.ar    1  UNL1       -0.0205
     22 C          64.6618   91.6792   12.7796 C.ar    1  UNL1       -0.0042
     23 C          65.6991   92.6185   13.3196 C.ar    1  UNL1       -0.0003
     24 C          66.3426   93.6262   12.4138 C.ar    1  UNL1       -0.0000
     25 C          65.9489   93.6945   10.9680 C.ar    1  UNL1       -0.0003
     26 C          64.9116   92.7551   10.4280 C.ar    1  UNL1       -0.0042
     27 C          61.1167   89.7158   11.8372 C.3     1  UNL1        0.0216
     28 C          60.2352   90.0408   10.6679 C.3     1  UNL1        0.0217
     29 C          60.1810   89.1146    9.4892 C.3     1  UNL1        0.0792
     30 N          60.2343   89.6692    8.0965 N.am    1  UNL1       -0.2720
     31 C          59.2363   89.2189    7.0711 C.2     1  UNL1        0.4019
     32 O          58.1851   88.2140    7.4385 O.2     1  UNL1       -0.2264
     33 H          60.9243   90.3288    7.8554 H       1  UNL1        0.1527
     34 O          59.2896   89.7735    5.6785 O.3     1  UNL1       -0.4291
     35 C          59.3477   91.2569    5.4636 C.3     1  UNL1        0.2447
     36 C          60.1800   91.8215    4.3507 C.ar    1  UNL1        0.0714
     37 C          61.6134   91.4854    4.0638 C.ar    1  UNL1        0.1053
     38 N          62.0442   92.2775    2.8650 N.ar    1  UNL1       -0.2350
     39 C          60.8771   93.1032    2.4111 C.ar    1  UNL1        0.1343
     40 S          59.7249   92.8213    3.3293 S.2     1  UNL1       -0.0652
     41 C          60.0735   87.6339    9.7032 C.3     1  UNL1        0.0460
     42 C          60.9230   86.6960    8.8976 C.ar    1  UNL1       -0.0205
     43 C          60.3251   85.9447    7.7453 C.ar    1  UNL1       -0.0042
     44 C          61.1746   85.0069    6.9398 C.ar    1  UNL1       -0.0003
     45 C          62.6220   84.8204    7.2866 C.ar    1  UNL1       -0.0000
     46 C          63.2199   85.5717    8.4390 C.ar    1  UNL1       -0.0003
     47 C          62.3704   86.5095    9.2445 C.ar    1  UNL1       -0.0042
@<TRIPOS>BOND
     1     8     9    1
     2     9    14    1
     3    14    15    1
     4    15    16   ar
     5    16    17   ar
     6    17    18   ar
     7    18    19   ar
     8     9    10   am
     9    10    11    2
    10    10    12   am
    11    12     7    1
    12     7     6    1
    13     6     2    1
    14     2     3    2
    15     2     4   am
    16     4     1    1
    17     1    27    1
    18    27    28    1
    19    29    28    1
    20    29    41    1
    21    41    42    1
    22    42    43   ar
    23    43    44   ar
    24    44    45   ar
    25    45    46   ar
    26    46    47   ar
    27    29    30    1
    28    30    31   am
    29    31    32    2
    30    31    34    1
    31    34    35    1
    32    35    36    1
    33    36    37   ar
    34    37    38   ar
    35    38    39   ar
    36    39    40   ar
    37     1    20    1
    38    20    21    1
    39    21    22   ar
    40    22    23   ar
    41    23    24   ar
    42    24    25   ar
    43    25    26   ar
    44    19    15   ar
    45    47    42   ar
    46    40    36   ar
    47    26    21   ar
    48    12    13    1
    49     4     5    1
    50    30    33    1
@<TRIPOS>MOLECULE
*****
 47 50 0 0 0
SMALL
GASTEIGER

@<TRIPOS>ATOM
      1 C          63.9779   90.4994   15.1236 C.3     1  UNL1        0.0759
      2 C          62.8597   88.6873   16.6123 C.2     1  UNL1        0.2242
      3 O          61.5117   89.2727   16.3122 O.2     1  UNL1       -0.2750
      4 N          64.0929   89.3007   16.0180 N.am    1  UNL1       -0.3056
      5 H          64.9777   88.9165   16.2149 H       1  UNL1        0.1494
      6 C          62.9746   87.4886   17.5066 C.3     1  UNL1        0.1063
      7 C          62.0295   86.3358   17.3408 C.3     1  UNL1        0.1005
      8 C          64.8792   84.1351   13.5944 C.3     1  UNL1        0.1168
      9 N          63.5519   84.3535   14.2582 N.am    1  UNL1       -0.2578
     10 C          63.4543   85.2354   15.4676 C.2     1  UNL1        0.3043
     11 O          64.6840   85.8990   16.0132 O.2     1  UNL1       -0.2526
     12 N          62.1271   85.4538   16.1314 N.am    1  UNL1       -0.2883
     13 H          61.3200   85.0183   15.7734 H       1  UNL1        0.1510
     14 C          62.3223   83.6899   13.7126 C.3     1  UNL1        0.1297
     15 C          62.3669   82.2471   13.3048 C.ar    1  UNL1        0.0479
     16 C          62.9159   81.7119   12.0155 C.ar    1  UNL1        0.1033
     17 N          62.7586   80.2202   12.0285 N.ar    1  UNL1       -0.2350
     18 C          62.1125   79.8335   13.3258 C.ar    1  UNL1        0.1343
     19 S          61.8704   81.0862   14.1146 S.2     1  UNL1       -0.0671
     20 C          64.5981   91.8026   15.5327 C.3     1  UNL1        0.0459
     21 C          66.0583   92.0467   15.2912 C.ar    1  UNL1       -0.0205
     22 C          66.6883   91.6114   14.0015 C.ar    1  UNL1       -0.0042
     23 C          68.1484   91.8555   13.7600 C.ar    1  UNL1       -0.0003
     24 C          68.9786   92.5350   14.8083 C.ar    1  UNL1       -0.0000
     25 C          68.3487   92.9704   16.0982 C.ar    1  UNL1       -0.0003
     26 C          66.8885   92.7263   16.3396 C.ar    1  UNL1       -0.0042
     27 C          63.2429   90.3950   13.8203 C.3     1  UNL1        0.0216
     28 C          64.0041   90.1898   12.5443 C.3     1  UNL1        0.0217
     29 C          63.7623   91.0949   11.3728 C.3     1  UNL1        0.0792
     30 N          63.0820   90.5666   10.1447 N.am    1  UNL1       -0.2720
     31 C          61.6588   90.0982   10.2186 C.2     1  UNL1        0.4019
     32 O          60.9161   90.1582   11.5203 O.2     1  UNL1       -0.2264
     33 H          63.5695   90.5273    9.2903 H       1  UNL1        0.1527
     34 O          60.9785   89.5699    8.9905 O.3     1  UNL1       -0.4291
     35 C          60.3999   88.1861    8.9903 C.3     1  UNL1        0.2447
     36 C          61.2358   87.0236    9.4374 C.ar    1  UNL1        0.0714
     37 C          62.1900   86.2433    8.5827 C.ar    1  UNL1        0.1053
     38 N          62.8082   85.1747    9.4347 N.ar    1  UNL1       -0.2350
     39 C          62.2360   85.2946   10.8161 C.ar    1  UNL1        0.1343
     40 S          61.2642   86.4372   10.8178 S.2     1  UNL1       -0.0652
     41 C          64.2008   92.5282   11.4293 C.3     1  UNL1        0.0460
     42 C          65.4739   92.9502   10.7575 C.ar    1  UNL1       -0.0205
     43 C          66.5600   91.9456   10.5101 C.ar    1  UNL1       -0.0042
     44 C          67.8330   92.3675    9.8384 C.ar    1  UNL1       -0.0003
     45 C          68.0200   93.7940    9.4140 C.ar    1  UNL1       -0.0000
     46 C          66.9339   94.7986    9.6614 C.ar    1  UNL1       -0.0003
     47 C          65.6609   94.3767   10.3332 C.ar    1  UNL1       -0.0042
@<TRIPOS>BOND
     1     8     9    1
     2     9    14    1
     3    14    15    1
     4    15    16   ar
     5    16    17   ar
     6    17    18   ar
     7    18    19   ar
     8     9    10   am
     9    10    11    2
    10    10    12   am
    11    12     7    1
    12     7     6    1
    13     6     2    1
    14     2     3    2
    15     2     4   am
    16     4     1    1
    17     1    27    1
    18    27    28    1
    19    29    28    1
    20    29    41    1
    21    41    42    1
    22    42    43   ar
    23    43    44   ar
    24    44    45   ar
    25    45    46   ar
    26    46    47   ar
    27    29    30    1
    28    30    31   am
    29    31    32    2
    30    31    34    1
    31    34    35    1
    32    35    36    1
    33    36    37   ar
    34    37    38   ar
    35    38    39   ar
    36    39    40   ar
    37     1    20    1
    38    20    21    1
    39    21    22   ar
    40    22    23   ar
    41    23    24   ar
    42    24    25   ar
    43    25    26   ar
    44    19    15   ar
    45    47    42   ar
    46    40    36   ar
    47    26    21   ar
    48    12    13    1
    49     4     5    1
    50    30    33    1
@<TRIPOS>MOLECULE
*****
 47 50 0 0 0
SMALL
GASTEIGER

@<TRIPOS>ATOM
      1 C          60.4178   88.5456    9.1779 C.3     1  UNL1        0.0759
      2 C          59.2101   89.3575    7.0256 C.2     1  UNL1        0.2242
      3 O          58.2458   88.2139    7.1352 O.2     1  UNL1       -0.2750
      4 N          60.2961   89.5234    8.0469 N.am    1  UNL1       -0.3056
      5 H          60.9291   90.2741    7.9750 H       1  UNL1        0.1494
      6 C          59.0885   90.3354    5.8946 C.3     1  UNL1        0.1063
      7 C          60.3217   90.8622    5.2227 C.3     1  UNL1        0.1005
      8 C          62.5066   93.5266    1.3333 C.3     1  UNL1        0.1168
      9 N          61.2918   93.1509    2.1291 N.am    1  UNL1       -0.2578
     10 C          61.4141   92.1944    3.2780 C.2     1  UNL1        0.3043
     11 O          62.7513   91.6135    3.6312 O.2     1  UNL1       -0.2526
     12 N          60.1994   91.8187    4.0738 N.am    1  UNL1       -0.2883
     13 H          59.3218   92.1999    3.8419 H       1  UNL1        0.1510
     14 C          59.9547   93.7318    1.7758 C.3     1  UNL1        0.1297
     15 C          59.4069   93.5645    0.3895 C.ar    1  UNL1        0.0479
     16 C          59.5203   92.3341   -0.4609 C.ar    1  UNL1        0.1033
     17 N          58.8330   92.6074   -1.7658 N.ar    1  UNL1       -0.2350
     18 C          58.2948   94.0069   -1.7220 C.ar    1  UNL1        0.1343
     19 S          58.6495   94.5983   -0.3899 S.2     1  UNL1       -0.0671
     20 C          60.0082   87.1161    8.9807 C.3     1  UNL1        0.0459
     21 C          60.8785   86.1896    8.1845 C.ar    1  UNL1       -0.0205
     22 C          62.3308   86.0428    8.5298 C.ar    1  UNL1       -0.0042
     23 C          63.2011   85.1162    7.7336 C.ar    1  UNL1       -0.0003
     24 C          62.6192   84.3364    6.5920 C.ar    1  UNL1       -0.0000
     25 C          61.1668   84.4832    6.2466 C.ar    1  UNL1       -0.0003
     26 C          60.2965   85.4098    7.0428 C.ar    1  UNL1       -0.0042
     27 C          60.9490   88.9972   10.5059 C.3     1  UNL1        0.0216
     28 C          62.3856   88.7529   10.8614 C.3     1  UNL1        0.0217
     29 C          62.7331   87.8029   11.9691 C.3     1  UNL1        0.0792
     30 N          63.7694   88.1822   12.9850 N.am    1  UNL1       -0.2720
     31 C          63.5068   89.3094   13.9393 C.2     1  UNL1        0.4019
     32 O          62.2079   90.0571   13.8776 O.2     1  UNL1       -0.2264
     33 H          64.6219   87.6915   13.0255 H       1  UNL1        0.1527
     34 O          64.5430   89.6888   14.9553 O.3     1  UNL1       -0.4291
     35 C          65.0100   91.1107   15.0554 C.3     1  UNL1        0.2447
     36 C          65.9008   91.6841   13.9934 C.ar    1  UNL1        0.0714
     37 C          67.4006   91.7007   14.0151 C.ar    1  UNL1        0.1053
     38 N          67.8750   92.3684   12.7584 N.ar    1  UNL1       -0.2350
     39 C          66.6684   92.7645   11.9601 C.ar    1  UNL1        0.1343
     40 S          65.4483   92.3416   12.7234 S.2     1  UNL1       -0.0652
     41 C          62.0442   86.4736   12.0608 C.3     1  UNL1        0.0460
     42 C          62.8492   85.2239   12.2619 C.ar    1  UNL1       -0.0205
     43 C          62.9675   84.2213   11.1525 C.ar    1  UNL1       -0.0042
     44 C          63.7725   82.9718   11.3537 C.ar    1  UNL1       -0.0003
     45 C          64.4592   82.7248   12.6642 C.ar    1  UNL1       -0.0000
     46 C          64.3409   83.7274   13.7735 C.ar    1  UNL1       -0.0003
     47 C          63.5359   84.9770   13.5724 C.ar    1  UNL1       -0.0042
@<TRIPOS>BOND
     1     8     9    1
     2     9    14    1
     3    14    15    1
     4    15    16   ar
     5    16    17   ar
     6    17    18   ar
     7    18    19   ar
     8     9    10   am
     9    10    11    2
    10    10    12   am
    11    12     7    1
    12     7     6    1
    13     6     2    1
    14     2     3    2
    15     2     4   am
    16     4     1    1
    17     1    27    1
    18    27    28    1
    19    29    28    1
    20    29    41    1
    21    41    42    1
    22    42    43   ar
    23    43    44   ar
    24    44    45   ar
    25    45    46   ar
    26    46    47   ar
    27    29    30    1
    28    30    31   am
    29    31    32    2
    30    31    34    1
    31    34    35    1
    32    35    36    1
    33    36    37   ar
    34    37    38   ar
    35    38    39   ar
    36    39    40   ar
    37     1    20    1
    38    20    21    1
    39    21    22   ar
    40    22    23   ar
    41    23    24   ar
    42    24    25   ar
    43    25    26   ar
    44    19    15   ar
    45    47    42   ar
    46    40    36   ar
    47    26    21   ar
    48    12    13    1
    49     4     5    1
    50    30    33    1
@<TRIPOS>MOLECULE
*****
 47 50 0 0 0
SMALL
GASTEIGER

@<TRIPOS>ATOM
      1 C          62.0767   90.4996   10.9440 C.3     1  UNL1        0.0759
      2 C          62.9217   89.4408   13.1610 C.2     1  UNL1        0.2242
      3 O          63.4070   88.2409   12.4030 O.2     1  UNL1       -0.2750
      4 N          62.2565   90.5702   12.4315 N.am    1  UNL1       -0.3056
      5 H          61.9379   91.3577   12.9290 H       1  UNL1        0.1494
      6 C          63.1015   89.5114   14.6485 C.3     1  UNL1        0.1063
      7 C          64.0774   88.5989   15.3302 C.3     1  UNL1        0.1005
      8 C          62.9144   83.5518   15.7483 C.3     1  UNL1        0.1168
      9 N          63.6576   84.6614   15.0652 N.am    1  UNL1       -0.2578
     10 C          63.4959   86.0753   15.5392 C.2     1  UNL1        0.3043
     11 O          62.5911   86.3797   16.6963 O.2     1  UNL1       -0.2526
     12 N          64.2390   87.1849   14.8562 N.am    1  UNL1       -0.2883
     13 H          64.8329   86.9852   14.0968 H       1  UNL1        0.1510
     14 C          64.5624   84.3571   13.9083 C.3     1  UNL1        0.1297
     15 C          64.1168   83.4054   12.8378 C.ar    1  UNL1        0.0479
     16 C          64.4774   83.4823   11.3838 C.ar    1  UNL1        0.1033
     17 N          63.8159   82.3342   10.6808 N.ar    1  UNL1       -0.2350
     18 C          63.0465   81.5477   11.7003 C.ar    1  UNL1        0.1343
     19 S          63.2324   82.2098   13.0334 S.2     1  UNL1       -0.0671
     20 C          60.7958   89.9732   10.3675 C.3     1  UNL1        0.0459
     21 C          60.7943   88.6896    9.5913 C.ar    1  UNL1       -0.0205
     22 C          61.9005   87.6952    9.7843 C.ar    1  UNL1       -0.0042
     23 C          61.8990   86.4116    9.0081 C.ar    1  UNL1       -0.0003
     24 C          60.7913   86.1225    8.0389 C.ar    1  UNL1       -0.0000
     25 C          59.6850   87.1170    7.8458 C.ar    1  UNL1       -0.0003
     26 C          59.6865   88.4006    8.6220 C.ar    1  UNL1       -0.0042
     27 C          63.1778   90.9552   10.0330 C.3     1  UNL1        0.0216
     28 C          63.9200   92.2244   10.3301 C.3     1  UNL1        0.0217
     29 C          65.1652   92.1870   11.1656 C.3     1  UNL1        0.0792
     30 N          65.1058   91.6859   12.5782 N.am    1  UNL1       -0.2720
     31 C          65.4320   92.6081   13.7155 C.2     1  UNL1        0.4019
     32 O          65.8176   94.0312   13.4401 O.2     1  UNL1       -0.2264
     33 H          64.8527   90.7518   12.7589 H       1  UNL1        0.1527
     34 O          65.3725   92.1070   15.1280 O.3     1  UNL1       -0.4291
     35 C          66.3992   92.5538   16.1262 C.3     1  UNL1        0.2447
     36 C          67.8054   92.8299   15.6833 C.ar    1  UNL1        0.0714
     37 C          68.5591   92.0818   14.6239 C.ar    1  UNL1        0.1053
     38 N          69.9244   92.6920   14.5078 N.ar    1  UNL1       -0.2350
     39 C          70.0146   93.8173   15.4955 C.ar    1  UNL1        0.1343
     40 S          68.7050   93.9025   16.2220 S.2     1  UNL1       -0.0652
     41 C          66.4698   92.6508   10.5886 C.3     1  UNL1        0.0460
     42 C          66.5866   94.0306   10.0120 C.ar    1  UNL1       -0.0205
     43 C          65.7624   95.1507   10.5741 C.ar    1  UNL1       -0.0042
     44 C          65.8792   96.5304    9.9975 C.ar    1  UNL1       -0.0003
     45 C          66.8204   96.7902    8.8587 C.ar    1  UNL1       -0.0000
     46 C          67.6446   95.6701    8.2966 C.ar    1  UNL1       -0.0003
     47 C          67.5277   94.2904    8.8732 C.ar    1  UNL1       -0.0042
@<TRIPOS>BOND
     1     8     9    1
     2     9    14    1
     3    14    15    1
     4    15    16   ar
     5    16    17   ar
     6    17    18   ar
     7    18    19   ar
     8     9    10   am
     9    10    11    2
    10    10    12   am
    11    12     7    1
    12     7     6    1
    13     6     2    1
    14     2     3    2
    15     2     4   am
    16     4     1    1
    17     1    27    1
    18    27    28    1
    19    29    28    1
    20    29    41    1
    21    41    42    1
    22    42    43   ar
    23    43    44   ar
    24    44    45   ar
    25    45    46   ar
    26    46    47   ar
    27    29    30    1
    28    30    31   am
    29    31    32    2
    30    31    34    1
    31    34    35    1
    32    35    36    1
    33    36    37   ar
    34    37    38   ar
    35    38    39   ar
    36    39    40   ar
    37     1    20    1
    38    20    21    1
    39    21    22   ar
    40    22    23   ar
    41    23    24   ar
    42    24    25   ar
    43    25    26   ar
    44    19    15   ar
    45    47    42   ar
    46    40    36   ar
    47    26    21   ar
    48    12    13    1
    49     4     5    1
    50    30    33    1
