@<TRIPOS>MOLECULE
*****
 29 32 0 0 0
SMALL
GASTEIGER

@<TRIPOS>ATOM
      1 C          61.9723   88.9612   10.4188 C.ar    1  UNL1        0.0000
      2 C          62.5678   88.1212   11.5096 C.ar    1  UNL1       -0.0002
      3 C          63.4619   88.7498   12.5370 C.ar    1  UNL1       -0.0017
      4 C          63.7605   90.2184   12.4736 C.ar    1  UNL1        0.0070
      5 C          63.1649   91.0584   11.3828 C.ar    1  UNL1       -0.0017
      6 C          62.2708   90.4298   10.3554 C.ar    1  UNL1       -0.0002
      7 C          59.2447   88.5574    7.5645 C.ar    1  UNL1        0.0503
      8 C          59.2900   87.0755    7.3367 C.ar    1  UNL1        0.0147
      9 C          60.2294   86.2221    8.1363 C.ar    1  UNL1        0.0013
     10 C          61.1235   86.8507    9.1637 C.ar    1  UNL1        0.0001
     11 C          61.0782   88.3326    9.3914 C.ar    1  UNL1        0.0012
     12 C          60.1388   89.1859    8.5919 C.ar    1  UNL1        0.0147
     13 C          57.9058   91.2133    4.9371 C.3     1  UNL1        0.0949
     14 C          58.8452   90.3600    5.7367 C.2     1  UNL1        0.2266
     15 O          60.3246   90.4559    5.5080 O.2     1  UNL1       -0.2748
     16 N          58.3053   89.4107    6.7649 N.am    1  UNL1       -0.2839
     17 H          57.3343   89.3477    6.9150 H       1  UNL1        0.1549
     18 C          64.6546   90.8471   13.5009 C.3     1  UNL1        0.1410
     19 O          65.2294   91.7486   12.4489 O.3     1  UNL1       -0.3771
     20 H          64.8082   91.5596   11.5958 H       1  UNL1        0.2112
     21 C          64.0797   89.9455   14.5528 C.ar    1  UNL1        0.0825
     22 C          64.4530   88.5114   14.7850 C.ar    1  UNL1        0.1157
     23 N          63.6345   87.9993   15.9331 N.ar    1  UNL1       -0.2228
     24 C          62.7554   89.1170   16.4105 C.ar    1  UNL1        0.1749
     25 N          63.0305   90.3198   15.5575 N.ar    1  UNL1       -0.3361
     26 H          62.5983   91.2003   15.6421 H       1  UNL1        0.1673
     27 C          65.5486   91.4757   14.5282 C.3     1  UNL1        0.0340
     28 C          65.7289   92.3550   15.7300 C.3     1  UNL1        0.0031
     29 C          66.9170   91.6852   15.1058 C.3     1  UNL1        0.0031
@<TRIPOS>BOND
     1    13    14    1
     2    14    15    2
     3    14    16   am
     4    16     7    1
     5     7     8   ar
     6     8     9   ar
     7     9    10   ar
     8    10    11   ar
     9    11     1    1
    10     1     2   ar
    11     2     3   ar
    12     3     4   ar
    13     4    18    1
    14    18    19    1
    15    18    21    1
    16    21    22   ar
    17    22    23   ar
    18    23    24   ar
    19    24    25   ar
    20    18    27    1
    21    27    28    1
    22    28    29    1
    23     4     5   ar
    24     5     6   ar
    25    11    12   ar
    26    12     7   ar
    27     6     1   ar
    28    25    21   ar
    29    29    27    1
    30    16    17    1
    31    19    20    1
    32    25    26    1
@<TRIPOS>MOLECULE
*****
 29 32 0 0 0
SMALL
GASTEIGER

@<TRIPOS>ATOM
      1 C          63.7238   87.7160   13.4277 C.ar    1  UNL1        0.0000
      2 C          64.1821   86.9256   14.6173 C.ar    1  UNL1       -0.0002
      3 C          63.8217   85.4745   14.7377 C.ar    1  UNL1       -0.0017
      4 C          63.0031   84.8138   13.6684 C.ar    1  UNL1        0.0070
      5 C          62.5448   85.6043   12.4787 C.ar    1  UNL1       -0.0017
      6 C          62.9052   87.0554   12.3584 C.ar    1  UNL1       -0.0002
      7 C          65.3572   91.2505   14.1956 C.ar    1  UNL1        0.0503
      8 C          64.8050   92.0693   13.0667 C.ar    1  UNL1        0.0147
      9 C          63.8923   91.4370   12.0580 C.ar    1  UNL1        0.0013
     10 C          63.5320   89.9859   12.1783 C.ar    1  UNL1        0.0001
     11 C          64.0842   89.1672   13.3073 C.ar    1  UNL1        0.0012
     12 C          64.9968   89.7995   14.3159 C.ar    1  UNL1        0.0147
     13 C          68.5968   92.8473   15.8402 C.3     1  UNL1        0.0949
     14 C          67.6842   92.2151   14.8316 C.2     1  UNL1        0.2266
     15 O          68.1861   91.9150   13.4502 O.2     1  UNL1       -0.2748
     16 N          66.2698   91.8828   15.2043 N.am    1  UNL1       -0.2839
     17 H          65.9404   92.0797   16.1109 H       1  UNL1        0.1549
     18 C          62.6427   83.3628   13.7887 C.3     1  UNL1        0.1410
     19 O          61.9900   83.6346   15.1115 O.3     1  UNL1       -0.3771
     20 H          62.0690   84.5779   15.3233 H       1  UNL1        0.2112
     21 C          63.2954   83.0910   12.4658 C.ar    1  UNL1        0.0825
     22 C          64.7637   83.1806   12.1721 C.ar    1  UNL1        0.1157
     23 N          64.9702   82.8268   10.7291 N.ar    1  UNL1       -0.2228
     24 C          63.6296   82.5186   10.1309 C.ar    1  UNL1        0.1749
     25 N          62.5945   82.6818   11.2043 N.ar    1  UNL1       -0.3361
     26 H          61.6253   82.5446   11.0992 H       1  UNL1        0.1673
     27 C          62.2823   81.9117   13.9090 C.3     1  UNL1        0.0340
     28 C          62.6856   80.4671   13.8893 C.3     1  UNL1        0.0031
     29 C          61.2548   80.8430   14.1371 C.3     1  UNL1        0.0031
@<TRIPOS>BOND
     1    13    14    1
     2    14    15    2
     3    14    16   am
     4    16     7    1
     5     7     8   ar
     6     8     9   ar
     7     9    10   ar
     8    10    11   ar
     9    11     1    1
    10     1     2   ar
    11     2     3   ar
    12     3     4   ar
    13     4    18    1
    14    18    19    1
    15    18    21    1
    16    21    22   ar
    17    22    23   ar
    18    23    24   ar
    19    24    25   ar
    20    18    27    1
    21    27    28    1
    22    28    29    1
    23     4     5   ar
    24     5     6   ar
    25    11    12   ar
    26    12     7   ar
    27     6     1   ar
    28    25    21   ar
    29    29    27    1
    30    16    17    1
    31    19    20    1
    32    25    26    1
@<TRIPOS>MOLECULE
*****
 29 32 0 0 0
SMALL
GASTEIGER

@<TRIPOS>ATOM
      1 C          62.5054   89.4856   10.5829 C.ar    1  UNL1        0.0000
      2 C          62.8871   88.9031   11.9114 C.ar    1  UNL1       -0.0002
      3 C          63.7543   89.6858   12.8524 C.ar    1  UNL1       -0.0017
      4 C          64.2397   91.0512   12.4648 C.ar    1  UNL1        0.0070
      5 C          63.8579   91.6338   11.1363 C.ar    1  UNL1       -0.0017
      6 C          62.9908   90.8510   10.1954 C.ar    1  UNL1       -0.0002
      7 C          59.6909   88.6131    7.9245 C.ar    1  UNL1        0.0503
      8 C          59.9040   87.1375    7.7601 C.ar    1  UNL1        0.0147
      9 C          60.9841   86.4445    8.5367 C.ar    1  UNL1        0.0013
     10 C          61.8513   87.2272    9.4776 C.ar    1  UNL1        0.0001
     11 C          61.6382   88.7029    9.6420 C.ar    1  UNL1        0.0012
     12 C          60.5581   89.3958    8.8654 C.ar    1  UNL1        0.0147
     13 C          57.8871   90.8659    5.2003 C.3     1  UNL1        0.0949
     14 C          58.9673   90.1729    5.9769 C.2     1  UNL1        0.2266
     15 O          60.4040   90.3469    5.5824 O.2     1  UNL1       -0.2748
     16 N          58.6108   89.3060    7.1479 N.am    1  UNL1       -0.2839
     17 H          57.6678   89.1918    7.4068 H       1  UNL1        0.1549
     18 C          65.1068   91.8340   13.4057 C.3     1  UNL1        0.1410
     19 O          64.3928   91.2210   14.5737 O.3     1  UNL1       -0.3771
     20 H          63.7102   90.6116   14.2518 H       1  UNL1        0.2112
     21 C          65.8208   92.4470   12.2377 C.ar    1  UNL1        0.0825
     22 C          67.0667   91.9194   11.5901 C.ar    1  UNL1        0.1157
     23 N          67.4302   92.8416   10.4642 N.ar    1  UNL1       -0.2228
     24 C          66.4089   93.9393   10.4161 C.ar    1  UNL1        0.1749
     25 N          65.4143   93.6954   11.5121 N.ar    1  UNL1       -0.3361
     26 H          64.6320   94.2562   11.7189 H       1  UNL1        0.1673
     27 C          65.9739   92.6168   14.3466 C.3     1  UNL1        0.0340
     28 C          66.9024   93.7660   14.6057 C.3     1  UNL1        0.0031
     29 C          66.5474   92.8233   15.7172 C.3     1  UNL1        0.0031
@<TRIPOS>BOND
     1    13    14    1
     2    14    15    2
     3    14    16   am
     4    16     7    1
     5     7     8   ar
     6     8     9   ar
     7     9    10   ar
     8    10    11   ar
     9    11     1    1
    10     1     2   ar
    11     2     3   ar
    12     3     4   ar
    13     4    18    1
    14    18    19    1
    15    18    21    1
    16    21    22   ar
    17    22    23   ar
    18    23    24   ar
    19    24    25   ar
    20    18    27    1
    21    27    28    1
    22    28    29    1
    23     4     5   ar
    24     5     6   ar
    25    11    12   ar
    26    12     7   ar
    27     6     1   ar
    28    25    21   ar
    29    29    27    1
    30    16    17    1
    31    19    20    1
    32    25    26    1
@<TRIPOS>MOLECULE
*****
 29 32 0 0 0
SMALL
GASTEIGER

@<TRIPOS>ATOM
      1 C          64.8382   91.3090   13.5647 C.ar    1  UNL1        0.0000
      2 C          65.8500   92.3018   14.0549 C.ar    1  UNL1       -0.0002
      3 C          66.3215   93.4013   13.1498 C.ar    1  UNL1       -0.0017
      4 C          65.7811   93.5078   11.7547 C.ar    1  UNL1        0.0070
      5 C          64.7691   92.5149   11.2645 C.ar    1  UNL1       -0.0017
      6 C          64.2977   91.4156   12.1695 C.ar    1  UNL1       -0.0002
      7 C          64.2106   87.6810   15.0458 C.ar    1  UNL1        0.0503
      8 C          63.4238   88.0107   16.2795 C.ar    1  UNL1        0.0147
      9 C          63.1084   89.4398   16.6083 C.ar    1  UNL1        0.0013
     10 C          63.5799   90.5392   15.7034 C.ar    1  UNL1        0.0001
     11 C          64.3667   90.2095   14.4697 C.ar    1  UNL1        0.0012
     12 C          64.6821   88.7804   14.1408 C.ar    1  UNL1        0.0147
     13 C          64.1615   84.1515   13.2318 C.3     1  UNL1        0.0949
     14 C          63.8461   85.5806   13.5606 C.2     1  UNL1        0.2266
     15 O          62.8508   86.3386   12.7330 O.2     1  UNL1       -0.2748
     16 N          64.5260   86.2518   14.7170 N.am    1  UNL1       -0.2839
     17 H          65.1793   85.7544   15.2601 H       1  UNL1        0.1549
     18 C          66.2525   94.6072   10.8497 C.3     1  UNL1        0.1410
     19 O          65.3075   95.5619   11.5171 O.3     1  UNL1       -0.3771
     20 H          64.8163   95.0974   12.2127 H       1  UNL1        0.2112
     21 C          67.1975   93.6526   10.1822 C.ar    1  UNL1        0.0825
     22 C          67.4802   93.5755    8.7111 C.ar    1  UNL1        0.1157
     23 N          68.4832   92.4826    8.4884 N.ar    1  UNL1       -0.2228
     24 C          68.8205   91.8842    9.8219 C.ar    1  UNL1        0.1749
     25 N          68.0259   92.6072   10.8687 N.ar    1  UNL1       -0.3361
     26 H          68.0447   92.4273   11.8365 H       1  UNL1        0.1673
     27 C          66.7239   95.7066    9.9447 C.3     1  UNL1        0.0340
     28 C          67.6911   96.8111    9.6371 C.3     1  UNL1        0.0031
     29 C          66.5732   96.5064    8.6847 C.3     1  UNL1        0.0031
@<TRIPOS>BOND
     1    13    14    1
     2    14    15    2
     3    14    16   am
     4    16     7    1
     5     7     8   ar
     6     8     9   ar
     7     9    10   ar
     8    10    11   ar
     9    11     1    1
    10     1     2   ar
    11     2     3   ar
    12     3     4   ar
    13     4    18    1
    14    18    19    1
    15    18    21    1
    16    21    22   ar
    17    22    23   ar
    18    23    24   ar
    19    24    25   ar
    20    18    27    1
    21    27    28    1
    22    28    29    1
    23     4     5   ar
    24     5     6   ar
    25    11    12   ar
    26    12     7   ar
    27     6     1   ar
    28    25    21   ar
    29    29    27    1
    30    16    17    1
    31    19    20    1
    32    25    26    1
@<TRIPOS>MOLECULE
*****
 29 32 0 0 0
SMALL
GASTEIGER

@<TRIPOS>ATOM
      1 C          64.2538   89.0756   14.6708 C.ar    1  UNL1        0.0000
      2 C          63.7585   89.2763   13.2692 C.ar    1  UNL1       -0.0002
      3 C          64.1905   90.4806   12.4863 C.ar    1  UNL1       -0.0017
      4 C          65.1179   91.4842   13.1050 C.ar    1  UNL1        0.0070
      5 C          65.6132   91.2835   14.5066 C.ar    1  UNL1       -0.0017
      6 C          65.1812   90.0792   15.2894 C.ar    1  UNL1       -0.0002
      7 C          63.7735   85.2932   15.7721 C.ar    1  UNL1        0.0503
      8 C          62.9578   85.4625   17.0194 C.ar    1  UNL1        0.0147
      9 C          62.5740   86.8362   17.4839 C.ar    1  UNL1        0.0013
     10 C          63.0060   88.0405   16.7010 C.ar    1  UNL1        0.0001
     11 C          63.8218   87.8712   15.4537 C.ar    1  UNL1        0.0012
     12 C          64.2055   86.4975   14.9892 C.ar    1  UNL1        0.0147
     13 C          63.8316   81.9227   13.6776 C.3     1  UNL1        0.0949
     14 C          63.4478   83.2964   14.1421 C.2     1  UNL1        0.2266
     15 O          62.3546   84.0471   13.4410 O.2     1  UNL1       -0.2748
     16 N          64.1572   83.9195   15.3076 N.am    1  UNL1       -0.2839
     17 H          64.8747   83.4268   15.7678 H       1  UNL1        0.1549
     18 C          65.5499   92.6886   12.3221 C.3     1  UNL1        0.1410
     19 O          64.4508   92.4395   11.3323 O.3     1  UNL1       -0.3771
     20 H          63.9504   91.6515   11.5963 H       1  UNL1        0.2112
     21 C          66.6491   92.9377   13.3119 C.ar    1  UNL1        0.0825
     22 C          67.9887   92.2630   13.3303 C.ar    1  UNL1        0.1157
     23 N          68.7692   92.8135   14.4870 N.ar    1  UNL1       -0.2228
     24 C          67.9120   93.8285   15.1834 C.ar    1  UNL1        0.1749
     25 N          66.6017   93.9052   14.4572 N.ar    1  UNL1       -0.3361
     26 H          65.8437   94.4883   14.6912 H       1  UNL1        0.1673
     27 C          65.9820   93.8929   11.5393 C.3     1  UNL1        0.0340
     28 C          66.0400   95.3826   11.3740 C.3     1  UNL1        0.0031
     29 C          66.6723   94.4891   10.3485 C.3     1  UNL1        0.0031
@<TRIPOS>BOND
     1    13    14    1
     2    14    15    2
     3    14    16   am
     4    16     7    1
     5     7     8   ar
     6     8     9   ar
     7     9    10   ar
     8    10    11   ar
     9    11     1    1
    10     1     2   ar
    11     2     3   ar
    12     3     4   ar
    13     4    18    1
    14    18    19    1
    15    18    21    1
    16    21    22   ar
    17    22    23   ar
    18    23    24   ar
    19    24    25   ar
    20    18    27    1
    21    27    28    1
    22    28    29    1
    23     4     5   ar
    24     5     6   ar
    25    11    12   ar
    26    12     7   ar
    27     6     1   ar
    28    25    21   ar
    29    29    27    1
    30    16    17    1
    31    19    20    1
    32    25    26    1
@<TRIPOS>MOLECULE
*****
 29 32 0 0 0
SMALL
GASTEIGER

@<TRIPOS>ATOM
      1 C          63.8924   87.7799   13.9417 C.ar    1  UNL1        0.0000
      2 C          63.1642   87.2432   12.7453 C.ar    1  UNL1       -0.0002
      3 C          62.7836   85.7934   12.6871 C.ar    1  UNL1       -0.0017
      4 C          63.1312   84.8804   13.8253 C.ar    1  UNL1        0.0070
      5 C          63.8594   85.4173   15.0218 C.ar    1  UNL1       -0.0017
      6 C          64.2400   86.8670   15.0800 C.ar    1  UNL1       -0.0002
      7 C          64.8229   91.4619   12.7895 C.ar    1  UNL1        0.0503
      8 C          65.0343   92.1291   14.1162 C.ar    1  UNL1        0.0147
      9 C          64.8650   91.3467   15.3847 C.ar    1  UNL1        0.0013
     10 C          64.4844   89.8970   15.3266 C.ar    1  UNL1        0.0001
     11 C          64.2730   89.2297   13.9999 C.ar    1  UNL1        0.0012
     12 C          64.4423   90.0122   12.7314 C.ar    1  UNL1        0.0147
     13 C          66.5221   93.5079    9.8439 C.3     1  UNL1        0.0949
     14 C          66.3528   92.7254   11.1124 C.2     1  UNL1        0.2266
     15 O          67.5444   92.4240   11.9724 O.2     1  UNL1       -0.2748
     16 N          64.9921   92.2444   11.5210 N.am    1  UNL1       -0.2839
     17 H          64.2101   92.4422   10.9566 H       1  UNL1        0.1549
     18 C          62.7506   83.4307   13.7672 C.3     1  UNL1        0.1410
     19 O          62.1398   83.5363   15.1331 O.3     1  UNL1       -0.3771
     20 H          62.2402   84.4429   15.4630 H       1  UNL1        0.2112
     21 C          63.3614   83.3252   12.4013 C.ar    1  UNL1        0.0825
     22 C          64.8038   83.0449   12.0997 C.ar    1  UNL1        0.1157
     23 N          64.9709   83.0278   10.6091 N.ar    1  UNL1       -0.2228
     24 C          63.6318   83.2976    9.9894 C.ar    1  UNL1        0.1749
     25 N          62.6370   83.4813   11.0970 N.ar    1  UNL1       -0.3361
     26 H          61.6773   83.6711   10.9872 H       1  UNL1        0.1673
     27 C          62.3700   81.9810   13.7090 C.3     1  UNL1        0.0340
     28 C          62.7518   80.5449   13.5045 C.3     1  UNL1        0.0031
     29 C          61.3290   80.9061   13.8129 C.3     1  UNL1        0.0031
@<TRIPOS>BOND
     1    13    14    1
     2    14    15    2
     3    14    16   am
     4    16     7    1
     5     7     8   ar
     6     8     9   ar
     7     9    10   ar
     8    10    11   ar
     9    11     1    1
    10     1     2   ar
    11     2     3   ar
    12     3     4   ar
    13     4    18    1
    14    18    19    1
    15    18    21    1
    16    21    22   ar
    17    22    23   ar
    18    23    24   ar
    19    24    25   ar
    20    18    27    1
    21    27    28    1
    22    28    29    1
    23     4     5   ar
    24     5     6   ar
    25    11    12   ar
    26    12     7   ar
    27     6     1   ar
    28    25    21   ar
    29    29    27    1
    30    16    17    1
    31    19    20    1
    32    25    26    1
@<TRIPOS>MOLECULE
*****
 29 32 0 0 0
SMALL
GASTEIGER

@<TRIPOS>ATOM
      1 C          63.1543   89.7859   12.0473 C.ar    1  UNL1        0.0000
      2 C          63.7131   89.1148   13.2669 C.ar    1  UNL1       -0.0002
      3 C          64.7445   89.8143   14.1017 C.ar    1  UNL1       -0.0017
      4 C          65.2172   91.1849   13.7168 C.ar    1  UNL1        0.0070
      5 C          64.6584   91.8559   12.4972 C.ar    1  UNL1       -0.0017
      6 C          63.6270   91.1564   11.6625 C.ar    1  UNL1       -0.0002
      7 C          60.4017   89.1217    9.2667 C.ar    1  UNL1        0.0503
      8 C          60.0599   87.6875    9.5430 C.ar    1  UNL1        0.0147
      9 C          60.7496   86.9528   10.6540 C.ar    1  UNL1        0.0013
     10 C          61.7811   87.6522   11.4888 C.ar    1  UNL1        0.0001
     11 C          62.1228   89.0864   11.2125 C.ar    1  UNL1        0.0012
     12 C          61.4331   89.8211   10.1015 C.ar    1  UNL1        0.0147
     13 C          58.5835   89.8518    5.8154 C.3     1  UNL1        0.0949
     14 C          59.2733   89.1171    6.9265 C.2     1  UNL1        0.2266
     15 O          59.5243   87.6429    6.8083 O.2     1  UNL1       -0.2748
     16 N          59.7119   89.8564    8.1556 N.am    1  UNL1       -0.2839
     17 H          59.5472   90.8239    8.2331 H       1  UNL1        0.1549
     18 C          66.2486   91.8844   14.5516 C.3     1  UNL1        0.1410
     19 O          65.3415   91.8001   15.7431 O.3     1  UNL1       -0.3771
     20 H          64.5170   91.3555   15.4910 H       1  UNL1        0.2112
     21 C          67.1558   91.9686   13.3600 C.ar    1  UNL1        0.0825
     22 C          66.8686   92.7017   12.0832 C.ar    1  UNL1        0.1157
     23 N          68.0449   92.5207   11.1701 N.ar    1  UNL1       -0.2228
     24 C          69.0591   91.6757   11.8825 C.ar    1  UNL1        0.1749
     25 N          68.5096   91.3345   13.2359 N.ar    1  UNL1       -0.3361
     26 H          68.9587   90.7900   13.9223 H       1  UNL1        0.1673
     27 C          67.2801   92.5839   15.3863 C.3     1  UNL1        0.0340
     28 C          68.0128   93.8366   15.7655 C.3     1  UNL1        0.0031
     29 C          68.3339   92.5427   16.4529 C.3     1  UNL1        0.0031
@<TRIPOS>BOND
     1    13    14    1
     2    14    15    2
     3    14    16   am
     4    16     7    1
     5     7     8   ar
     6     8     9   ar
     7     9    10   ar
     8    10    11   ar
     9    11     1    1
    10     1     2   ar
    11     2     3   ar
    12     3     4   ar
    13     4    18    1
    14    18    19    1
    15    18    21    1
    16    21    22   ar
    17    22    23   ar
    18    23    24   ar
    19    24    25   ar
    20    18    27    1
    21    27    28    1
    22    28    29    1
    23     4     5   ar
    24     5     6   ar
    25    11    12   ar
    26    12     7   ar
    27     6     1   ar
    28    25    21   ar
    29    29    27    1
    30    16    17    1
    31    19    20    1
    32    25    26    1
@<TRIPOS>MOLECULE
*****
 29 32 0 0 0
SMALL
GASTEIGER

@<TRIPOS>ATOM
      1 C          62.9912   87.5467   11.7960 C.ar    1  UNL1        0.0000
      2 C          63.6693   86.9075   12.9714 C.ar    1  UNL1       -0.0002
      3 C          63.5154   85.4357   13.2170 C.ar    1  UNL1       -0.0017
      4 C          62.6834   84.6032   12.2871 C.ar    1  UNL1        0.0070
      5 C          62.0053   85.2424   11.1117 C.ar    1  UNL1       -0.0017
      6 C          62.1592   86.7141   10.8661 C.ar    1  UNL1       -0.0002
      7 C          63.9951   91.3507   12.3172 C.ar    1  UNL1        0.0503
      8 C          63.4529   91.9619   11.0593 C.ar    1  UNL1        0.0147
      9 C          62.7568   91.1014   10.0469 C.ar    1  UNL1        0.0013
     10 C          62.6029   89.6296   10.2925 C.ar    1  UNL1        0.0001
     11 C          63.1451   89.0185   11.5504 C.ar    1  UNL1        0.0012
     12 C          63.8412   89.8790   12.5628 C.ar    1  UNL1        0.0147
     13 C          66.7476   93.6293   14.0440 C.3     1  UNL1        0.0949
     14 C          66.0515   92.7688   13.0316 C.2     1  UNL1        0.2266
     15 O          66.7157   92.4658   11.7212 O.2     1  UNL1       -0.2748
     16 N          64.6912   92.2112   13.3296 N.am    1  UNL1       -0.2839
     17 H          64.2553   92.4101   14.1896 H       1  UNL1        0.1549
     18 C          62.5295   83.1315   12.5327 C.3     1  UNL1        0.1410
     19 O          62.2397   82.9188   11.0764 O.3     1  UNL1       -0.3771
     20 H          62.2711   83.7703   10.6128 H       1  UNL1        0.2112
     21 C          62.8193   83.3441   13.9889 C.ar    1  UNL1        0.0825
     22 C          64.0669   82.9269   14.7098 C.ar    1  UNL1        0.1157
     23 N          63.9310   83.3363   16.1465 N.ar    1  UNL1       -0.2228
     24 C          62.5995   84.0066   16.3136 C.ar    1  UNL1        0.1749
     25 N          61.9124   84.0114   14.9802 N.ar    1  UNL1       -0.3361
     26 H          61.0225   84.3866   14.7891 H       1  UNL1        0.1673
     27 C          62.3756   81.6598   12.7782 C.3     1  UNL1        0.0340
     28 C          61.7676   80.5287   13.5534 C.3     1  UNL1        0.0031
     29 C          62.7172   80.2417   12.4283 C.3     1  UNL1        0.0031
@<TRIPOS>BOND
     1    13    14    1
     2    14    15    2
     3    14    16   am
     4    16     7    1
     5     7     8   ar
     6     8     9   ar
     7     9    10   ar
     8    10    11   ar
     9    11     1    1
    10     1     2   ar
    11     2     3   ar
    12     3     4   ar
    13     4    18    1
    14    18    19    1
    15    18    21    1
    16    21    22   ar
    17    22    23   ar
    18    23    24   ar
    19    24    25   ar
    20    18    27    1
    21    27    28    1
    22    28    29    1
    23     4     5   ar
    24     5     6   ar
    25    11    12   ar
    26    12     7   ar
    27     6     1   ar
    28    25    21   ar
    29    29    27    1
    30    16    17    1
    31    19    20    1
    32    25    26    1
