@<TRIPOS>MOLECULE
*****
 71 78 0 0 0
SMALL
GASTEIGER

@<TRIPOS>ATOM
      1 C          60.4741   87.1959   11.4357 C.3     1  UNL1        0.1217
      2 N          65.7877   90.0283   13.9838 N.3     1  UNL1       -0.1862
      3 C          66.2185   88.8621   14.8231 C.3     1  UNL1        0.1775
      4 C          65.4143   87.5960   14.8171 C.2     1  UNL1        0.2452
      5 O          65.8451   86.4298   15.6565 O.2     1  UNL1       -0.2732
      6 N          64.1792   87.4960   13.9718 N.am    1  UNL1       -0.2541
      7 C          63.3750   86.2298   13.9658 C.3     1  UNL1        0.1577
      8 C          62.1399   86.1298   13.1204 C.2     1  UNL1        0.2445
      9 O          61.3357   84.8636   13.1144 O.2     1  UNL1       -0.2731
     10 N          61.7091   87.2960   12.2810 N.am    1  UNL1       -0.2705
     11 C          62.5134   88.5621   12.2870 C.3     1  UNL1        0.1359
     12 C          63.7485   88.6621   13.1324 C.3     1  UNL1        0.1908
     13 N          64.5527   89.9282   13.1384 N.am    1  UNL1       -0.1863
     14 C          64.1219   91.0944   12.2990 C.2     1  UNL1        0.3191
     15 O          62.8868   90.9944   11.4537 O.2     1  UNL1       -0.2512
     16 N          64.9261   92.3606   12.3050 N.am    1  UNL1       -0.2836
     17 H          65.7367   92.4262   12.8599 H       1  UNL1        0.1513
     18 C          66.5920   91.2944   13.9898 C.3     1  UNL1        0.1188
     19 C          67.9647   92.1139   16.0377 C.2     1  UNL1       -0.0034
     20 C          66.6927   92.1130   15.2426 C.2     1  UNL1       -0.0071
     21 C          63.8057   85.0637   14.8051 C.3     1  UNL1        0.0556
     22 C          63.4705   83.6661   14.3758 C.ar    1  UNL1       -0.0198
     23 C          64.2618   83.0062   13.2857 C.ar    1  UNL1       -0.0011
     24 C          63.9265   81.6086   12.8563 C.ar    1  UNL1        0.0363
     25 C          62.8000   80.8709   13.5171 C.ar    1  UNL1        0.1337
     26 O          62.4647   79.4733   13.0878 O.3     1  UNL1       -0.5055
     27 C          62.0086   81.5308   14.6072 C.ar    1  UNL1        0.0363
     28 C          62.3439   82.9284   15.0366 C.ar    1  UNL1       -0.0011
     29 H          62.9591   79.0611   12.4068 H       1  UNL1        0.2922
     30 C          64.4953   93.5267   11.4657 C.3     1  UNL1        0.1177
     31 C          65.4926   94.2349   10.5974 C.ar    1  UNL1       -0.0025
     32 C          65.3409   95.7019   10.3241 C.ar    1  UNL1       -0.0026
     33 C          66.3382   96.4101    9.4558 C.ar    1  UNL1       -0.0003
     34 C          67.4872   95.6512    8.8609 C.ar    1  UNL1       -0.0000
     35 C          67.6389   94.1841    9.1342 C.ar    1  UNL1       -0.0003
     36 C          66.6416   93.4759   10.0025 C.ar    1  UNL1       -0.0026
     37 C          60.5728   87.3288    9.9448 C.ar    1  UNL1        0.0135
     38 C          61.0215   86.1619    9.1159 C.ar    1  UNL1       -0.0012
     39 C          61.1203   86.2947    7.6251 C.ar    1  UNL1       -0.0002
     40 C          60.7704   87.5944    6.9632 C.ar    1  UNL1        0.0015
     41 C          60.3217   88.7613    7.7920 C.ar    1  UNL1        0.0170
     42 C          59.9138   90.1568    7.4230 C.ar    1  UNL1        0.0186
     43 C          59.5629   90.8864    8.6857 C.ar    1  UNL1        0.0759
     44 N          59.7540   89.9419    9.8351 N.ar    1  UNL1       -0.3242
     45 C          59.5176   90.2557   11.2827 C.3     1  UNL1        0.1305
     46 C          60.2230   88.6285    9.2828 C.ar    1  UNL1        0.0575
     47 C          59.8653   90.7232    6.0348 C.ar    1  UNL1        0.0015
     48 C          61.1286   90.8671    5.2389 C.ar    1  UNL1        0.0002
     49 C          61.0800   91.4335    3.8508 C.ar    1  UNL1        0.0045
     50 C          59.7682   91.8560    3.2586 C.ar    1  UNL1        0.0534
     51 C          58.5049   91.7121    4.0545 C.ar    1  UNL1        0.0045
     52 C          58.5535   91.1457    5.4426 C.ar    1  UNL1        0.0002
     53 C          59.7197   92.4224    1.8705 C.2     1  UNL1        0.2458
     54 O          60.9719   92.5013    1.0486 O.2     1  UNL1       -0.2701
     55 N          58.4190   92.9098    1.3043 N.am    1  UNL1       -0.3025
     56 H          57.5970   92.8580    1.8437 H       1  UNL1        0.1497
     57 C          58.3706   93.4762   -0.0838 C.3     1  UNL1        0.0720
     58 C          59.2041   94.6728   -0.4350 C.3     1  UNL1        0.0213
     59 C          59.1557   95.2392   -1.8231 C.3     1  UNL1        0.0214
     60 C          58.2739   94.6091   -2.8600 C.3     1  UNL1        0.0749
     61 C          57.4404   93.4124   -2.5088 C.3     1  UNL1        0.0214
     62 C          57.4887   92.8460   -1.1207 C.3     1  UNL1        0.0213
     63 N          58.2255   95.1754   -4.2481 N.am    1  UNL1       -0.2723
     64 C          58.1246   94.2570   -5.4297 C.2     1  UNL1        0.4014
     65 O          58.0721   92.7722   -5.2232 O.2     1  UNL1       -0.2264
     66 H          58.2599   96.1499   -4.3836 H       1  UNL1        0.1527
     67 O          58.0762   94.8232   -6.8179 O.3     1  UNL1       -0.4419
     68 C          57.0332   95.8396   -7.1774 C.3     1  UNL1        0.1378
     69 C          58.1093   96.8512   -7.4392 C.3     1  UNL1        0.0437
     70 C          55.9571   94.8279   -6.9155 C.3     1  UNL1        0.0437
     71 C          55.9902   96.8559   -7.5368 C.3     1  UNL1        0.0437
@<TRIPOS>BOND
     1    19    20    2
     2    20    18    1
     3    18     2    1
     4     2     3    1
     5     3     4    1
     6     4     5    2
     7     4     6   am
     8     6     7    1
     9     7    21    1
    10    21    22    1
    11    22    23   ar
    12    23    24   ar
    13    24    25   ar
    14    25    26    1
    15    25    27   ar
    16    27    28   ar
    17     7     8    1
    18     8     9    2
    19     8    10   am
    20    10     1    1
    21     1    37    1
    22    37    38   ar
    23    38    39   ar
    24    39    40   ar
    25    40    41   ar
    26    41    42   ar
    27    42    47    1
    28    47    48   ar
    29    48    49   ar
    30    49    50   ar
    31    50    53    1
    32    53    54    2
    33    53    55   am
    34    55    57    1
    35    57    58    1
    36    58    59    1
    37    59    60    1
    38    60    63    1
    39    63    64   am
    40    64    65    2
    41    64    67    1
    42    67    68    1
    43    68    69    1
    44    68    70    1
    45    68    71    1
    46    60    61    1
    47    61    62    1
    48    50    51   ar
    49    51    52   ar
    50    42    43   ar
    51    43    44   ar
    52    44    45    1
    53    44    46   ar
    54    10    11    1
    55    12    11    1
    56    12    13    1
    57    13    14   am
    58    14    15    2
    59    14    16   am
    60    16    30    1
    61    30    31    1
    62    31    32   ar
    63    32    33   ar
    64    33    34   ar
    65    34    35   ar
    66    35    36   ar
    67    13     2    1
    68    36    31   ar
    69    12     6    1
    70    28    22   ar
    71    46    37   ar
    72    46    41   ar
    73    52    47   ar
    74    62    57    1
    75    26    29    1
    76    55    56    1
    77    63    66    1
    78    16    17    1
