@<TRIPOS>MOLECULE
*****
 26 28 0 0 0
SMALL
GASTEIGER

@<TRIPOS>ATOM
      1 N          60.9921   88.5990   10.7709 N.am    1  UNL1       -0.2581
      2 C          60.1203   89.5507   10.0066 C.3     1  UNL1        0.1168
      3 C          62.2017   89.1083   11.4973 C.2     1  UNL1        0.3080
      4 O          63.0735   88.1566   12.2617 O.2     1  UNL1       -0.2522
      5 N          62.5394   90.5693   11.4593 N.am    1  UNL1       -0.2681
      6 H          61.9672   91.1939   10.9577 H       1  UNL1        0.1564
      7 C          63.7490   91.0786   12.1857 C.ar    1  UNL1        0.0516
      8 C          63.9659   90.7185   13.6257 C.ar    1  UNL1        0.0147
      9 C          65.1755   91.2278   14.3521 C.ar    1  UNL1        0.0011
     10 C          66.1680   92.0971   13.6385 C.ar    1  UNL1       -0.0004
     11 C          65.9511   92.4572   12.1986 C.ar    1  UNL1        0.0011
     12 C          64.7415   91.9479   11.4723 C.ar    1  UNL1        0.0147
     13 C          67.3776   92.6064   14.3649 C.2     1  UNL1        0.0249
     14 C          68.8057   92.3070   14.0175 C.2     1  UNL1        0.1194
     15 N          69.6822   93.0201   15.0041 N.2     1  UNL1       -0.1510
     16 N          68.7957   93.7602   15.9613 N.2     1  UNL1       -0.1695
     17 C          67.3713   93.5046   15.5663 C.3     1  UNL1        0.1771
     18 C          60.6544   87.1380   10.8089 C.3     1  UNL1        0.1218
     19 C          63.1479   84.0516   10.7297 C.ar    1  UNL1        0.1385
     20 C          63.6182   84.1036    9.3063 C.ar    1  UNL1        0.0369
     21 C          63.1006   85.1671    8.3837 C.ar    1  UNL1        0.0028
     22 C          62.1127   86.1786    8.8846 C.ar    1  UNL1       -0.0024
     23 C          61.6424   86.1265   10.3080 C.ar    1  UNL1        0.0007
     24 C          62.1600   85.0631   11.2305 C.ar    1  UNL1        0.0343
     25 C          62.7790   81.8466   12.0532 C.3     1  UNL1        0.2525
     26 O          63.6656   82.9881   11.6522 O.3     1  UNL1       -0.4714
@<TRIPOS>BOND
     1    25    26    1
     2    26    19    1
     3    19    20   ar
     4    20    21   ar
     5    21    22   ar
     6    22    23   ar
     7    23    18    1
     8    18     1    1
     9     1     2    1
    10     1     3   am
    11     3     4    2
    12     3     5   am
    13     5     7    1
    14     7     8   ar
    15     8     9   ar
    16     9    10   ar
    17    10    13    1
    18    13    14    2
    19    14    15    1
    20    15    16    2
    21    16    17    1
    22    10    11   ar
    23    11    12   ar
    24    23    24   ar
    25    24    19   ar
    26    12     7   ar
    27    17    13    1
    28     5     6    1
@<TRIPOS>MOLECULE
*****
 26 28 0 0 0
SMALL
GASTEIGER

@<TRIPOS>ATOM
      1 N          63.5035   85.7638   16.1131 N.am    1  UNL1       -0.2581
      2 C          62.4300   86.0294   17.1266 C.3     1  UNL1        0.1168
      3 C          64.0315   86.8853   15.2684 C.2     1  UNL1        0.3080
      4 O          65.1049   86.6198   14.2550 O.2     1  UNL1       -0.2522
      5 N          63.4859   88.2724   15.4372 N.am    1  UNL1       -0.2681
      6 H          62.7813   88.4466   16.1024 H       1  UNL1        0.1564
      7 C          64.0138   89.3939   14.5925 C.ar    1  UNL1        0.0516
      8 C          63.3166   89.7647   13.3172 C.ar    1  UNL1        0.0147
      9 C          63.8445   90.8862   12.4725 C.ar    1  UNL1        0.0011
     10 C          65.0697   91.6369   12.9032 C.ar    1  UNL1       -0.0004
     11 C          65.7669   91.2661   14.1784 C.ar    1  UNL1        0.0011
     12 C          65.2390   90.1446   15.0231 C.ar    1  UNL1        0.0147
     13 C          65.5977   92.7584   12.0585 C.2     1  UNL1        0.0249
     14 C          65.5147   92.8509   10.5636 C.2     1  UNL1        0.1194
     15 N          66.1670   94.1340   10.1416 N.2     1  UNL1       -0.1510
     16 N          66.6532   94.8345   11.3756 N.2     1  UNL1       -0.1695
     17 C          66.3014   93.9844   12.5604 C.3     1  UNL1        0.1771
     18 C          64.0490   84.3768   15.9444 C.3     1  UNL1        0.1218
     19 C          63.9063   82.6039   12.3966 C.ar    1  UNL1        0.1385
     20 C          62.6430   81.8060   12.5291 C.ar    1  UNL1        0.0369
     21 C          61.8484   81.8650   13.8000 C.ar    1  UNL1        0.0028
     22 C          62.3171   82.7219   14.9384 C.ar    1  UNL1       -0.0024
     23 C          63.5803   83.5198   14.8059 C.ar    1  UNL1        0.0007
     24 C          64.3749   83.4608   13.5350 C.ar    1  UNL1        0.0343
     25 C          64.2071   83.2529    9.8990 C.3     1  UNL1        0.2525
     26 O          64.7008   82.5449   11.1257 O.3     1  UNL1       -0.4714
@<TRIPOS>BOND
     1    25    26    1
     2    26    19    1
     3    19    20   ar
     4    20    21   ar
     5    21    22   ar
     6    22    23   ar
     7    23    18    1
     8    18     1    1
     9     1     2    1
    10     1     3   am
    11     3     4    2
    12     3     5   am
    13     5     7    1
    14     7     8   ar
    15     8     9   ar
    16     9    10   ar
    17    10    13    1
    18    13    14    2
    19    14    15    1
    20    15    16    2
    21    16    17    1
    22    10    11   ar
    23    11    12   ar
    24    23    24   ar
    25    24    19   ar
    26    12     7   ar
    27    17    13    1
    28     5     6    1
@<TRIPOS>MOLECULE
*****
 26 28 0 0 0
SMALL
GASTEIGER

@<TRIPOS>ATOM
      1 N          60.9840   88.6615   10.7583 N.am    1  UNL1       -0.2581
      2 C          60.1488   89.6119    9.9524 C.3     1  UNL1        0.1168
      3 C          62.1942   89.1617   11.4899 C.2     1  UNL1        0.3080
      4 O          63.0293   88.2113   12.2957 O.2     1  UNL1       -0.2522
      5 N          62.5692   90.6122   11.4157 N.am    1  UNL1       -0.2681
      6 H          62.0211   91.2359   10.8868 H       1  UNL1        0.1564
      7 C          63.7794   91.1123   12.1474 C.ar    1  UNL1        0.0516
      8 C          63.9849   90.7546   13.5896 C.ar    1  UNL1        0.0147
      9 C          65.1951   91.2547   14.3212 C.ar    1  UNL1        0.0011
     10 C          66.1998   92.1125   13.6106 C.ar    1  UNL1       -0.0004
     11 C          65.9943   92.4701   12.1685 C.ar    1  UNL1        0.0011
     12 C          64.7841   91.9700   11.4369 C.ar    1  UNL1        0.0147
     13 C          67.4100   92.6126   14.3423 C.2     1  UNL1        0.0249
     14 C          68.8374   92.3050   13.9991 C.2     1  UNL1        0.1194
     15 N          69.7149   93.0104   14.9903 N.2     1  UNL1       -0.1510
     16 N          68.8298   93.7540   15.9461 N.2     1  UNL1       -0.1695
     17 C          67.4052   93.5082   15.5457 C.3     1  UNL1        0.1771
     18 C          60.6089   87.2111   10.8325 C.3     1  UNL1        0.1218
     19 C          62.7451   84.9790    8.3416 C.ar    1  UNL1        0.1385
     20 C          63.4490   84.0718    9.3067 C.ar    1  UNL1        0.0369
     21 C          63.2063   84.2110   10.7803 C.ar    1  UNL1        0.0028
     22 C          62.2596   85.2574   11.2889 C.ar    1  UNL1       -0.0024
     23 C          61.5557   86.1646   10.3239 C.ar    1  UNL1        0.0007
     24 C          61.7984   86.0254    8.8502 C.ar    1  UNL1        0.0343
     25 C          61.8715   84.4145    5.9608 C.3     1  UNL1        0.2525
     26 O          62.9879   84.8398    6.8679 O.3     1  UNL1       -0.4714
@<TRIPOS>BOND
     1    25    26    1
     2    26    19    1
     3    19    20   ar
     4    20    21   ar
     5    21    22   ar
     6    22    23   ar
     7    23    18    1
     8    18     1    1
     9     1     2    1
    10     1     3   am
    11     3     4    2
    12     3     5   am
    13     5     7    1
    14     7     8   ar
    15     8     9   ar
    16     9    10   ar
    17    10    13    1
    18    13    14    2
    19    14    15    1
    20    15    16    2
    21    16    17    1
    22    10    11   ar
    23    11    12   ar
    24    23    24   ar
    25    24    19   ar
    26    12     7   ar
    27    17    13    1
    28     5     6    1
@<TRIPOS>MOLECULE
*****
 26 28 0 0 0
SMALL
GASTEIGER

@<TRIPOS>ATOM
      1 N          63.8002   90.4817   13.4900 N.am    1  UNL1       -0.2581
      2 C          63.4981   91.2031   12.2100 C.3     1  UNL1        0.1168
      3 C          63.6603   88.9899   13.5611 C.2     1  UNL1        0.3080
      4 O          63.9624   88.2685   14.8410 O.2     1  UNL1       -0.2522
      5 N          63.2183   88.2196   12.3523 N.am    1  UNL1       -0.2681
      6 H          63.0200   88.6931   11.5122 H       1  UNL1        0.1564
      7 C          63.0784   86.7278   12.4234 C.ar    1  UNL1        0.0516
      8 C          63.6689   85.9733   13.5776 C.ar    1  UNL1        0.0147
      9 C          63.5290   84.4816   13.6488 C.ar    1  UNL1        0.0011
     10 C          62.7986   83.7443   12.5657 C.ar    1  UNL1       -0.0004
     11 C          62.2081   84.4988   11.4116 C.ar    1  UNL1        0.0011
     12 C          62.3480   85.9905   11.3405 C.ar    1  UNL1        0.0147
     13 C          62.6587   82.2525   12.6369 C.2     1  UNL1        0.0249
     14 C          63.0303   81.2796   11.5574 C.2     1  UNL1        0.1194
     15 N          62.7239   79.8975   12.0533 N.2     1  UNL1       -0.1510
     16 N          62.1629   80.0162   13.4394 N.2     1  UNL1       -0.1695
     17 C          62.1226   81.4717   13.8001 C.3     1  UNL1        0.1771
     18 C          64.2422   91.2520   14.6987 C.3     1  UNL1        0.1218
     19 C          68.0181   92.0298   13.7564 C.ar    1  UNL1        0.1385
     20 C          68.4849   92.7208   15.0033 C.ar    1  UNL1        0.0369
     21 C          67.5374   92.9221   16.1486 C.ar    1  UNL1        0.0028
     22 C          66.1232   92.4326   16.0471 C.ar    1  UNL1       -0.0024
     23 C          65.6565   91.7416   14.8003 C.ar    1  UNL1        0.0007
     24 C          66.6039   91.5402   13.6549 C.ar    1  UNL1        0.0343
     25 C          68.4605   91.8910   11.2001 C.3     1  UNL1        0.2525
     26 O          68.9655   91.8284   12.6111 O.3     1  UNL1       -0.4714
@<TRIPOS>BOND
     1    25    26    1
     2    26    19    1
     3    19    20   ar
     4    20    21   ar
     5    21    22   ar
     6    22    23   ar
     7    23    18    1
     8    18     1    1
     9     1     2    1
    10     1     3   am
    11     3     4    2
    12     3     5   am
    13     5     7    1
    14     7     8   ar
    15     8     9   ar
    16     9    10   ar
    17    10    13    1
    18    13    14    2
    19    14    15    1
    20    15    16    2
    21    16    17    1
    22    10    11   ar
    23    11    12   ar
    24    23    24   ar
    25    24    19   ar
    26    12     7   ar
    27    17    13    1
    28     5     6    1
@<TRIPOS>MOLECULE
*****
 26 28 0 0 0
SMALL
GASTEIGER

@<TRIPOS>ATOM
      1 N          63.3409   86.5609   16.2148 N.am    1  UNL1       -0.2581
      2 C          62.2701   86.9895   17.1739 C.3     1  UNL1        0.1168
      3 C          63.9911   87.5708   15.3163 C.2     1  UNL1        0.3080
      4 O          65.0618   87.1423   14.3572 O.2     1  UNL1       -0.2522
      5 N          63.5705   89.0094   15.3770 N.am    1  UNL1       -0.2681
      6 H          62.8677   89.2907   16.0065 H       1  UNL1        0.1564
      7 C          64.2207   90.0194   14.4785 C.ar    1  UNL1        0.0516
      8 C          65.4888   90.6971   14.9059 C.ar    1  UNL1        0.0147
      9 C          66.1390   91.7071   14.0075 C.ar    1  UNL1        0.0011
     10 C          65.5210   92.0394   12.6816 C.ar    1  UNL1       -0.0004
     11 C          64.2530   91.3617   12.2543 C.ar    1  UNL1        0.0011
     12 C          63.6028   90.3517   13.1527 C.ar    1  UNL1        0.0147
     13 C          66.1712   93.0494   11.7832 C.2     1  UNL1        0.0249
     14 C          66.1689   94.5363   11.9809 C.2     1  UNL1        0.1194
     15 N          66.9341   95.1556   10.8492 N.2     1  UNL1       -0.1510
     16 N          67.4094   94.0515    9.9520 N.2     1  UNL1       -0.1695
     17 C          66.9379   92.7497   10.5292 C.3     1  UNL1        0.1771
     18 C          63.7614   85.1223   16.1541 C.3     1  UNL1        0.1218
     19 C          62.6805   84.0237   12.4970 C.ar    1  UNL1        0.1385
     20 C          62.4851   82.5491   12.6901 C.ar    1  UNL1        0.0369
     21 C          62.7151   81.9323   14.0379 C.ar    1  UNL1        0.0028
     22 C          63.1405   82.7899   15.1926 C.ar    1  UNL1       -0.0024
     23 C          63.3360   84.2645   14.9994 C.ar    1  UNL1        0.0007
     24 C          63.1059   84.8814   13.6517 C.ar    1  UNL1        0.0343
     25 C          61.6430   85.8989   11.0282 C.3     1  UNL1        0.2525
     26 O          62.4504   84.6406   11.1492 O.3     1  UNL1       -0.4714
@<TRIPOS>BOND
     1    25    26    1
     2    26    19    1
     3    19    20   ar
     4    20    21   ar
     5    21    22   ar
     6    22    23   ar
     7    23    18    1
     8    18     1    1
     9     1     2    1
    10     1     3   am
    11     3     4    2
    12     3     5   am
    13     5     7    1
    14     7     8   ar
    15     8     9   ar
    16     9    10   ar
    17    10    13    1
    18    13    14    2
    19    14    15    1
    20    15    16    2
    21    16    17    1
    22    10    11   ar
    23    11    12   ar
    24    23    24   ar
    25    24    19   ar
    26    12     7   ar
    27    17    13    1
    28     5     6    1
@<TRIPOS>MOLECULE
*****
 26 28 0 0 0
SMALL
GASTEIGER

@<TRIPOS>ATOM
      1 N          60.8628   89.0038   11.3458 N.am    1  UNL1       -0.2581
      2 C          59.8422   90.0262   10.9416 C.3     1  UNL1        0.1168
      3 C          62.1677   89.4417   11.9421 C.2     1  UNL1        0.3080
      4 O          63.1882   88.4195   12.3462 O.2     1  UNL1       -0.2522
      5 N          62.4519   90.9020   12.1342 N.am    1  UNL1       -0.2681
      6 H          61.7821   91.5730   11.8689 H       1  UNL1        0.1564
      7 C          63.7568   91.3400   12.7305 C.ar    1  UNL1        0.0516
      8 C          64.0816   91.0011   14.1552 C.ar    1  UNL1        0.0147
      9 C          65.3865   91.4390   14.7515 C.ar    1  UNL1        0.0011
     10 C          66.3665   92.2158   13.9231 C.ar    1  UNL1       -0.0004
     11 C          66.0417   92.5546   12.4984 C.ar    1  UNL1        0.0011
     12 C          64.7368   92.1167   11.9021 C.ar    1  UNL1        0.0147
     13 C          67.6714   92.6537   14.5193 C.2     1  UNL1        0.0249
     14 C          69.0363   92.2450   14.0505 C.2     1  UNL1        0.1194
     15 N          70.0490   92.9160   14.9306 N.2     1  UNL1       -0.1510
     16 N          69.3098   93.7394   15.9433 N.2     1  UNL1       -0.1695
     17 C          67.8403   93.5773   15.6892 C.3     1  UNL1        0.1771
     18 C          60.5785   87.5436   11.1536 C.3     1  UNL1        0.1218
     19 C          61.4650   85.6098    7.8033 C.ar    1  UNL1        0.1385
     20 C          60.2206   85.8484    7.0006 C.ar    1  UNL1        0.0369
     21 C          59.0955   86.6521    7.5821 C.ar    1  UNL1        0.0028
     22 C          59.2148   87.2172    8.9665 C.ar    1  UNL1       -0.0024
     23 C          60.4592   86.9785    9.7692 C.ar    1  UNL1        0.0007
     24 C          61.5843   86.1749    9.1877 C.ar    1  UNL1        0.0343
     25 C          62.5188   84.3358    5.7992 C.3     1  UNL1        0.2525
     26 O          62.5901   84.8061    7.2218 O.3     1  UNL1       -0.4714
@<TRIPOS>BOND
     1    25    26    1
     2    26    19    1
     3    19    20   ar
     4    20    21   ar
     5    21    22   ar
     6    22    23   ar
     7    23    18    1
     8    18     1    1
     9     1     2    1
    10     1     3   am
    11     3     4    2
    12     3     5   am
    13     5     7    1
    14     7     8   ar
    15     8     9   ar
    16     9    10   ar
    17    10    13    1
    18    13    14    2
    19    14    15    1
    20    15    16    2
    21    16    17    1
    22    10    11   ar
    23    11    12   ar
    24    23    24   ar
    25    24    19   ar
    26    12     7   ar
    27    17    13    1
    28     5     6    1
@<TRIPOS>MOLECULE
*****
 26 28 0 0 0
SMALL
GASTEIGER

@<TRIPOS>ATOM
      1 N          62.9894   90.3204   11.5146 N.am    1  UNL1       -0.2581
      2 C          62.4839   90.5657   10.1238 C.3     1  UNL1        0.1168
      3 C          63.0550   88.9218   12.0529 C.2     1  UNL1        0.3080
      4 O          63.5605   88.6765   13.4437 O.2     1  UNL1       -0.2522
      5 N          62.6152   87.7686   11.2004 N.am    1  UNL1       -0.2681
      6 H          62.2835   87.9297   10.2876 H       1  UNL1        0.1564
      7 C          62.6809   86.3701   11.7387 C.ar    1  UNL1        0.0516
      8 C          62.2437   85.2166   10.8852 C.ar    1  UNL1        0.0147
      9 C          62.3094   83.8181   11.4235 C.ar    1  UNL1        0.0011
     10 C          62.8122   83.5730   12.8153 C.ar    1  UNL1       -0.0004
     11 C          63.2493   84.7264   13.6688 C.ar    1  UNL1        0.0011
     12 C          63.1837   86.1250   13.1305 C.ar    1  UNL1        0.0147
     13 C          62.8779   82.1745   13.3536 C.2     1  UNL1        0.0249
     14 C          61.7053   81.3222   13.7393 C.2     1  UNL1        0.1194
     15 N          62.2304   80.0036   14.2248 N.2     1  UNL1       -0.1510
     16 N          63.7275   80.0410   14.1392 N.2     1  UNL1       -0.1695
     17 C          64.1277   81.3826   13.6008 C.3     1  UNL1        0.1771
     18 C          63.4292   91.4735   12.3671 C.3     1  UNL1        0.1218
     19 C          67.1892   92.5421   11.6810 C.ar    1  UNL1        0.1385
     20 C          67.8143   92.2504   13.0130 C.ar    1  UNL1        0.0369
     21 C          66.9777   91.6998   14.1296 C.ar    1  UNL1        0.0028
     22 C          65.5160   91.4408   13.9144 C.ar    1  UNL1       -0.0024
     23 C          64.8909   91.7325   12.5824 C.ar    1  UNL1        0.0007
     24 C          65.7275   92.2831   11.4658 C.ar    1  UNL1        0.0343
     25 C          68.3728   92.2267    9.3899 C.3     1  UNL1        0.2525
     26 O          68.0257   93.0927   10.5644 O.3     1  UNL1       -0.4714
@<TRIPOS>BOND
     1    25    26    1
     2    26    19    1
     3    19    20   ar
     4    20    21   ar
     5    21    22   ar
     6    22    23   ar
     7    23    18    1
     8    18     1    1
     9     1     2    1
    10     1     3   am
    11     3     4    2
    12     3     5   am
    13     5     7    1
    14     7     8   ar
    15     8     9   ar
    16     9    10   ar
    17    10    13    1
    18    13    14    2
    19    14    15    1
    20    15    16    2
    21    16    17    1
    22    10    11   ar
    23    11    12   ar
    24    23    24   ar
    25    24    19   ar
    26    12     7   ar
    27    17    13    1
    28     5     6    1
@<TRIPOS>MOLECULE
*****
 26 28 0 0 0
SMALL
GASTEIGER

@<TRIPOS>ATOM
      1 N          62.8590   90.2509   11.4148 N.am    1  UNL1       -0.2581
      2 C          62.3070   90.4794   10.0388 C.3     1  UNL1        0.1168
      3 C          62.9614   88.8572   11.9599 C.2     1  UNL1        0.3080
      4 O          63.5133   88.6287   13.3358 O.2     1  UNL1       -0.2522
      5 N          62.5120   87.6920   11.1290 N.am    1  UNL1       -0.2681
      6 H          62.1497   87.8420   10.2259 H       1  UNL1        0.1564
      7 C          62.6144   86.2983   11.6741 C.ar    1  UNL1        0.0516
      8 C          63.1312   86.0728   13.0641 C.ar    1  UNL1        0.0147
      9 C          63.2337   84.6791   13.6092 C.ar    1  UNL1        0.0011
     10 C          62.8193   83.5109   12.7642 C.ar    1  UNL1       -0.0004
     11 C          62.3026   83.7365   11.3742 C.ar    1  UNL1        0.0011
     12 C          62.2002   85.1302   10.8292 C.ar    1  UNL1        0.0147
     13 C          62.9218   82.1172   13.3093 C.2     1  UNL1        0.0249
     14 C          61.7828   81.1610   13.5048 C.2     1  UNL1        0.1194
     15 N          62.3383   79.8878   14.0709 N.2     1  UNL1       -0.1510
     16 N          63.8207   80.0572   14.2253 N.2     1  UNL1       -0.1695
     17 C          64.1814   81.4350   13.7546 C.3     1  UNL1        0.1771
     18 C          63.3084   91.4161   12.2456 C.3     1  UNL1        0.1218
     19 C          66.9512   91.8484   13.7599 C.ar    1  UNL1        0.1385
     20 C          67.6896   92.3901   12.5719 C.ar    1  UNL1        0.0369
     21 C          66.9676   92.6071   11.2752 C.ar    1  UNL1        0.0028
     22 C          65.5072   92.2825   11.1664 C.ar    1  UNL1       -0.0024
     23 C          64.7689   91.7408   12.3544 C.ar    1  UNL1        0.0007
     24 C          65.4909   91.5238   13.6511 C.ar    1  UNL1        0.0343
     25 C          67.5311   92.6266   16.1699 C.3     1  UNL1        0.2525
     26 O          67.6732   91.6314   15.0567 O.3     1  UNL1       -0.4714
@<TRIPOS>BOND
     1    25    26    1
     2    26    19    1
     3    19    20   ar
     4    20    21   ar
     5    21    22   ar
     6    22    23   ar
     7    23    18    1
     8    18     1    1
     9     1     2    1
    10     1     3   am
    11     3     4    2
    12     3     5   am
    13     5     7    1
    14     7     8   ar
    15     8     9   ar
    16     9    10   ar
    17    10    13    1
    18    13    14    2
    19    14    15    1
    20    15    16    2
    21    16    17    1
    22    10    11   ar
    23    11    12   ar
    24    23    24   ar
    25    24    19   ar
    26    12     7   ar
    27    17    13    1
    28     5     6    1
@<TRIPOS>MOLECULE
*****
 26 28 0 0 0
SMALL
GASTEIGER

@<TRIPOS>ATOM
      1 N          58.6059   91.7144    4.9145 N.am    1  UNL1       -0.2581
      2 C          57.1267   91.5282    4.7490 C.3     1  UNL1        0.1168
      3 C          59.3919   90.7586    5.7623 C.2     1  UNL1        0.3080
      4 O          60.8711   90.9448    5.9278 O.2     1  UNL1       -0.2522
      5 N          58.6987   89.6167    6.4447 N.am    1  UNL1       -0.2681
      6 H          57.7278   89.4946    6.3360 H       1  UNL1        0.1564
      7 C          59.4846   88.6610    7.2925 C.ar    1  UNL1        0.0516
      8 C          60.2611   89.1683    8.4714 C.ar    1  UNL1        0.0147
      9 C          61.0471   88.2125    9.3192 C.ar    1  UNL1        0.0011
     10 C          61.0566   86.7495    8.9881 C.ar    1  UNL1       -0.0004
     11 C          60.2801   86.2423    7.8093 C.ar    1  UNL1        0.0011
     12 C          59.4941   87.1980    6.9614 C.ar    1  UNL1        0.0147
     13 C          61.8426   85.7938    9.8359 C.2     1  UNL1        0.0249
     14 C          61.6925   85.5992   11.3157 C.2     1  UNL1        0.1194
     15 N          62.6738   84.5499   11.7472 N.2     1  UNL1       -0.1510
     16 N          63.4304   84.0961   10.5341 N.2     1  UNL1       -0.1695
     17 C          62.9167   84.8648    9.3528 C.3     1  UNL1        0.1771
     18 C          59.2991   92.8563    4.2322 C.3     1  UNL1        0.1218
     19 C          59.8827   92.4783    0.3249 C.ar    1  UNL1        0.1385
     20 C          61.3567   92.2034    0.2837 C.ar    1  UNL1        0.0369
     21 C          62.1448   92.1462    1.5587 C.ar    1  UNL1        0.0028
     22 C          61.4590   92.3638    2.8748 C.ar    1  UNL1       -0.0024
     23 C          59.9850   92.6386    2.9160 C.ar    1  UNL1        0.0007
     24 C          59.1968   92.6959    1.6410 C.ar    1  UNL1        0.0343
     25 C          57.6033   92.6912   -0.9036 C.3     1  UNL1        0.2525
     26 O          59.0945   92.5355   -0.9500 O.3     1  UNL1       -0.4714
@<TRIPOS>BOND
     1    25    26    1
     2    26    19    1
     3    19    20   ar
     4    20    21   ar
     5    21    22   ar
     6    22    23   ar
     7    23    18    1
     8    18     1    1
     9     1     2    1
    10     1     3   am
    11     3     4    2
    12     3     5   am
    13     5     7    1
    14     7     8   ar
    15     8     9   ar
    16     9    10   ar
    17    10    13    1
    18    13    14    2
    19    14    15    1
    20    15    16    2
    21    16    17    1
    22    10    11   ar
    23    11    12   ar
    24    23    24   ar
    25    24    19   ar
    26    12     7   ar
    27    17    13    1
    28     5     6    1
