@<TRIPOS>MOLECULE
*****
 35 39 0 0 0
SMALL
GASTEIGER

@<TRIPOS>ATOM
      1 N          63.5541   88.7251   14.1058 N.3     1  UNL1       -0.2641
      2 C          63.3929   89.4823   12.8210 C.3     1  UNL1        0.0981
      3 C          64.1475   90.7603   12.6039 C.3     1  UNL1        0.0224
      4 C          63.9863   91.5175   11.3191 C.3     1  UNL1        0.0065
      5 C          63.0705   90.9967   10.2514 C.3     1  UNL1        0.0277
      6 C          62.3159   89.7187   10.4685 C.ar    1  UNL1       -0.0073
      7 C          61.4001   89.1978    9.4008 C.ar    1  UNL1       -0.0015
      8 C          60.6454   87.9197    9.6179 C.ar    1  UNL1        0.0203
      9 C          60.8066   87.1626   10.9027 C.ar    1  UNL1        0.0985
     10 N          61.7224   87.6834   11.9704 N.ar    1  UNL1       -0.2471
     11 C          62.4771   88.9615   11.7533 C.ar    1  UNL1        0.0695
     12 C          62.8454   89.1889   15.3437 C.3     1  UNL1        0.0989
     13 C          64.1453   91.3784   15.8600 C.2     1  UNL1       -0.0122
     14 C          63.5505   90.0812   16.3219 C.2     1  UNL1       -0.0120
     15 C          64.8504   92.2705   16.8382 C.3     1  UNL1        0.0950
     16 N          66.1531   92.9130   16.4634 N.3     1  UNL1       -0.2947
     17 H          66.8653   92.5125   17.0739 H       1  UNL1        0.1235
     18 C          66.6703   92.7967   15.0603 C.3     1  UNL1        0.0593
     19 C          67.6936   91.7533   14.7222 C.3     1  UNL1        0.0479
     20 C          68.2109   91.6371   13.3190 C.3     1  UNL1        0.1435
     21 O          67.7049   92.5642   12.2539 O.3     1  UNL1       -0.3537
     22 C          66.6816   93.6076   12.5920 C.3     1  UNL1        0.1435
     23 C          66.1644   93.7239   13.9951 C.3     1  UNL1        0.0479
     24 C          64.4241   87.5041   14.1527 C.3     1  UNL1        0.0888
     25 C          63.8014   86.1427   14.2475 C.3     1  UNL1        0.0748
     26 C          63.7882   85.2389   13.0505 C.3     1  UNL1        0.0432
     27 C          63.1655   83.8775   13.1453 C.ar    1  UNL1       -0.0234
     28 C          63.1524   82.9737   11.9483 C.ar    1  UNL1       -0.0045
     29 C          62.5297   81.6124   12.0432 C.ar    1  UNL1       -0.0003
     30 C          61.9202   81.1549   13.3351 C.ar    1  UNL1       -0.0003
     31 C          61.9333   82.0586   14.5322 C.ar    1  UNL1       -0.0032
     32 C          62.5560   83.4200   14.4373 C.ar    1  UNL1       -0.0103
     33 C          62.5692   84.3238   15.6344 C.3     1  UNL1        0.0953
     34 N          63.1918   85.6851   15.5395 N.3     1  UNL1       -0.2934
     35 H          63.9302   85.7208   16.2423 H       1  UNL1        0.1236
@<TRIPOS>BOND
     1    13    14    2
     2    14    12    1
     3    12     1    1
     4     1    24    1
     5    25    24    1
     6    25    26    1
     7    26    27    1
     8    27    28   ar
     9    28    29   ar
    10    29    30   ar
    11    30    31   ar
    12    31    32   ar
    13    32    33    1
    14    33    34    1
    15     2     1    1
    16     2     3    1
    17     3     4    1
    18     4     5    1
    19     5     6    1
    20     6     7   ar
    21     7     8   ar
    22     8     9   ar
    23     9    10   ar
    24    10    11   ar
    25    13    15    1
    26    15    16    1
    27    16    18    1
    28    18    19    1
    29    19    20    1
    30    20    21    1
    31    21    22    1
    32    22    23    1
    33    34    25    1
    34    11     2    1
    35    23    18    1
    36    32    27   ar
    37    11     6   ar
    38    34    35    1
    39    16    17    1
@<TRIPOS>MOLECULE
*****
 35 39 0 0 0
SMALL
GASTEIGER

@<TRIPOS>ATOM
      1 N          62.9436   90.0041   13.1085 N.3     1  UNL1       -0.2641
      2 C          63.8330   91.0215   12.4574 C.3     1  UNL1        0.0981
      3 C          63.7381   91.2650   10.9804 C.3     1  UNL1        0.0224
      4 C          64.6275   92.2825   10.3294 C.3     1  UNL1        0.0065
      5 C          65.6117   93.0564   11.1554 C.3     1  UNL1        0.0277
      6 C          65.7066   92.8129   12.6324 C.ar    1  UNL1       -0.0073
      7 C          66.6908   93.5868   13.4585 C.ar    1  UNL1       -0.0015
      8 C          66.7857   93.3433   14.9355 C.ar    1  UNL1        0.0203
      9 C          65.8963   92.3258   15.5866 C.ar    1  UNL1        0.0985
     10 N          64.9121   91.5519   14.7606 N.ar    1  UNL1       -0.2471
     11 C          64.8172   91.7954   13.2834 C.ar    1  UNL1        0.0695
     12 C          63.4547   89.1871   14.2579 C.3     1  UNL1        0.0989
     13 C          64.2793   86.8505   15.0392 C.2     1  UNL1       -0.0122
     14 C          64.2294   87.9291   13.9981 C.2     1  UNL1       -0.0120
     15 C          65.0540   85.5927   14.7794 C.3     1  UNL1        0.0950
     16 N          64.4567   84.2598   15.1212 N.3     1  UNL1       -0.2947
     17 H          63.7435   84.4299   15.8302 H       1  UNL1        0.1235
     18 C          63.8134   83.4294   14.0504 C.3     1  UNL1        0.0593
     19 C          62.7653   82.4194   14.4126 C.3     1  UNL1        0.0479
     20 C          62.1220   81.5890   13.3417 C.3     1  UNL1        0.1435
     21 O          62.5269   81.7687   11.9087 O.3     1  UNL1       -0.3537
     22 C          63.5750   82.7787   11.5464 C.3     1  UNL1        0.1435
     23 C          64.2183   83.6091   12.6172 C.3     1  UNL1        0.0479
     24 C          61.5431   89.8036   12.6100 C.3     1  UNL1        0.0888
     25 C          61.2939   88.9693   11.3886 C.3     1  UNL1        0.0748
     26 C          62.2247   87.8439   11.0464 C.3     1  UNL1        0.0432
     27 C          61.9755   87.0096    9.8250 C.ar    1  UNL1       -0.0234
     28 C          62.9064   85.8842    9.4827 C.ar    1  UNL1       -0.0045
     29 C          62.6571   85.0499    8.2613 C.ar    1  UNL1       -0.0003
     30 C          61.4771   85.3409    7.3822 C.ar    1  UNL1       -0.0003
     31 C          60.5463   86.4662    7.7245 C.ar    1  UNL1       -0.0032
     32 C          60.7955   87.3006    8.9459 C.ar    1  UNL1       -0.0103
     33 C          59.8646   88.4260    9.2882 C.3     1  UNL1        0.0953
     34 N          60.1139   89.2603   10.5095 N.3     1  UNL1       -0.2934
     35 H          59.2830   89.1797   11.0957 H       1  UNL1        0.1236
@<TRIPOS>BOND
     1    13    14    2
     2    14    12    1
     3    12     1    1
     4     1    24    1
     5    25    24    1
     6    25    26    1
     7    26    27    1
     8    27    28   ar
     9    28    29   ar
    10    29    30   ar
    11    30    31   ar
    12    31    32   ar
    13    32    33    1
    14    33    34    1
    15     2     1    1
    16     2     3    1
    17     3     4    1
    18     4     5    1
    19     5     6    1
    20     6     7   ar
    21     7     8   ar
    22     8     9   ar
    23     9    10   ar
    24    10    11   ar
    25    13    15    1
    26    15    16    1
    27    16    18    1
    28    18    19    1
    29    19    20    1
    30    20    21    1
    31    21    22    1
    32    22    23    1
    33    34    25    1
    34    11     2    1
    35    23    18    1
    36    32    27   ar
    37    11     6   ar
    38    34    35    1
    39    16    17    1
@<TRIPOS>MOLECULE
*****
 35 39 0 0 0
SMALL
GASTEIGER

@<TRIPOS>ATOM
      1 N          64.0465   90.1169   13.8366 N.3     1  UNL1       -0.2641
      2 C          64.9457   91.3053   14.0070 C.3     1  UNL1        0.0981
      3 C          65.5327   91.6149   15.3522 C.3     1  UNL1        0.0224
      4 C          66.4319   92.8033   15.5227 C.3     1  UNL1        0.0065
      5 C          66.7441   93.6822   14.3480 C.3     1  UNL1        0.0277
      6 C          66.1570   93.3727   13.0028 C.ar    1  UNL1       -0.0073
      7 C          66.4692   94.2517   11.8280 C.ar    1  UNL1       -0.0015
      8 C          65.8821   93.9421   10.4828 C.ar    1  UNL1        0.0203
      9 C          64.9830   92.7537   10.3123 C.ar    1  UNL1        0.0985
     10 N          64.6708   91.8748   11.4871 N.ar    1  UNL1       -0.2471
     11 C          65.2578   92.1843   12.8323 C.ar    1  UNL1        0.0695
     12 C          64.6104   88.7301   13.9308 C.3     1  UNL1        0.0989
     13 C          64.5917   86.3954   15.0705 C.2     1  UNL1       -0.0122
     14 C          63.9012   87.6855   14.7407 C.2     1  UNL1       -0.0120
     15 C          63.8825   85.3509   15.8804 C.3     1  UNL1        0.0950
     16 N          62.5747   84.7921   15.4035 N.3     1  UNL1       -0.2947
     17 H          61.9913   85.5878   15.1447 H       1  UNL1        0.1235
     18 C          62.5440   83.8382   14.2463 C.3     1  UNL1        0.0593
     19 C          62.2497   82.3859   14.4790 C.3     1  UNL1        0.0479
     20 C          62.2190   81.4320   13.3218 C.3     1  UNL1        0.1435
     21 O          62.4827   81.9304   11.9318 O.3     1  UNL1       -0.3537
     22 C          62.7769   83.3828   11.6990 C.3     1  UNL1        0.1435
     23 C          62.8076   84.3366   12.8562 C.3     1  UNL1        0.0479
     24 C          62.5835   90.3152   13.5719 C.3     1  UNL1        0.0888
     25 C          61.9693   89.7775   12.3134 C.3     1  UNL1        0.0748
     26 C          62.4516   88.4785   11.7391 C.3     1  UNL1        0.0432
     27 C          61.8374   87.9409   10.4805 C.ar    1  UNL1       -0.0234
     28 C          62.3197   86.6418    9.9062 C.ar    1  UNL1       -0.0045
     29 C          61.7056   86.1042    8.6477 C.ar    1  UNL1       -0.0003
     30 C          60.6091   86.8657    7.9636 C.ar    1  UNL1       -0.0003
     31 C          60.1268   88.1647    8.5379 C.ar    1  UNL1       -0.0032
     32 C          60.7410   88.7023    9.7964 C.ar    1  UNL1       -0.0103
     33 C          60.2587   90.0014   10.3708 C.3     1  UNL1        0.0953
     34 N          60.8728   90.5390   11.6293 N.3     1  UNL1       -0.2934
     35 H          60.1167   90.6388   12.3066 H       1  UNL1        0.1236
@<TRIPOS>BOND
     1    13    14    2
     2    14    12    1
     3    12     1    1
     4     1    24    1
     5    25    24    1
     6    25    26    1
     7    26    27    1
     8    27    28   ar
     9    28    29   ar
    10    29    30   ar
    11    30    31   ar
    12    31    32   ar
    13    32    33    1
    14    33    34    1
    15     2     1    1
    16     2     3    1
    17     3     4    1
    18     4     5    1
    19     5     6    1
    20     6     7   ar
    21     7     8   ar
    22     8     9   ar
    23     9    10   ar
    24    10    11   ar
    25    13    15    1
    26    15    16    1
    27    16    18    1
    28    18    19    1
    29    19    20    1
    30    20    21    1
    31    21    22    1
    32    22    23    1
    33    34    25    1
    34    11     2    1
    35    23    18    1
    36    32    27   ar
    37    11     6   ar
    38    34    35    1
    39    16    17    1
@<TRIPOS>MOLECULE
*****
 35 39 0 0 0
SMALL
GASTEIGER

@<TRIPOS>ATOM
      1 N          61.9144   87.8287   10.8975 N.3     1  UNL1       -0.2641
      2 C          62.6096   89.1472   11.0659 C.3     1  UNL1        0.0981
      3 C          62.5418   90.1754    9.9759 C.3     1  UNL1        0.0224
      4 C          63.2370   91.4938   10.1442 C.3     1  UNL1        0.0065
      5 C          64.0000   91.7841   11.4026 C.3     1  UNL1        0.0277
      6 C          64.0677   90.7560   12.4926 C.ar    1  UNL1       -0.0073
      7 C          64.8307   91.0462   13.7511 C.ar    1  UNL1       -0.0015
      8 C          64.8984   90.0181   14.8412 C.ar    1  UNL1        0.0203
      9 C          64.2032   88.6996   14.6728 C.ar    1  UNL1        0.0985
     10 N          63.4403   88.4093   13.4144 N.ar    1  UNL1       -0.2471
     11 C          63.3725   89.4375   12.3243 C.ar    1  UNL1        0.0695
     12 C          60.4237   87.7433   11.0403 C.3     1  UNL1        0.0989
     13 C          60.1533   87.9486    8.4645 C.2     1  UNL1       -0.0122
     14 C          59.5539   87.7102    9.8186 C.2     1  UNL1       -0.0120
     15 C          59.2835   87.9156    7.2429 C.3     1  UNL1        0.0950
     16 N          58.4164   89.0928    6.9075 N.3     1  UNL1       -0.2947
     17 H          58.2040   89.5623    7.7877 H       1  UNL1        0.1235
     18 C          58.9149   90.1468    5.9638 C.3     1  UNL1        0.0593
     19 C          60.3740   90.2196    5.6238 C.3     1  UNL1        0.0479
     20 C          60.8725   91.2736    4.6800 C.3     1  UNL1        0.1435
     21 O          59.9118   92.2548    4.0764 O.3     1  UNL1       -0.3537
     22 C          58.4527   92.1820    4.4165 C.3     1  UNL1        0.1435
     23 C          57.9542   91.1280    5.3602 C.3     1  UNL1        0.0479
     24 C          62.7099   86.5957   10.5864 C.3     1  UNL1        0.0888
     25 C          62.6790   85.4264   11.5255 C.3     1  UNL1        0.0748
     26 C          62.7615   84.0291   10.9863 C.3     1  UNL1        0.0432
     27 C          62.7307   82.8598   11.9254 C.ar    1  UNL1       -0.0234
     28 C          62.8131   81.4625   11.3863 C.ar    1  UNL1       -0.0045
     29 C          62.7823   80.2933   12.3254 C.ar    1  UNL1       -0.0003
     30 C          62.6690   80.5214   13.8036 C.ar    1  UNL1       -0.0003
     31 C          62.5865   81.9187   14.3427 C.ar    1  UNL1       -0.0032
     32 C          62.6174   83.0879   13.4037 C.ar    1  UNL1       -0.0103
     33 C          62.5349   84.4853   13.9428 C.3     1  UNL1        0.0953
     34 N          62.5657   85.6545   13.0037 N.3     1  UNL1       -0.2934
     35 H          63.3637   86.2291   13.2750 H       1  UNL1        0.1236
@<TRIPOS>BOND
     1    13    14    2
     2    14    12    1
     3    12     1    1
     4     1    24    1
     5    25    24    1
     6    25    26    1
     7    26    27    1
     8    27    28   ar
     9    28    29   ar
    10    29    30   ar
    11    30    31   ar
    12    31    32   ar
    13    32    33    1
    14    33    34    1
    15     2     1    1
    16     2     3    1
    17     3     4    1
    18     4     5    1
    19     5     6    1
    20     6     7   ar
    21     7     8   ar
    22     8     9   ar
    23     9    10   ar
    24    10    11   ar
    25    13    15    1
    26    15    16    1
    27    16    18    1
    28    18    19    1
    29    19    20    1
    30    20    21    1
    31    21    22    1
    32    22    23    1
    33    34    25    1
    34    11     2    1
    35    23    18    1
    36    32    27   ar
    37    11     6   ar
    38    34    35    1
    39    16    17    1
@<TRIPOS>MOLECULE
*****
 35 39 0 0 0
SMALL
GASTEIGER

@<TRIPOS>ATOM
      1 N          60.7521   87.4744    9.9141 N.3     1  UNL1       -0.2641
      2 C          61.6893   86.3435    9.6100 C.3     1  UNL1        0.0981
      3 C          62.0376   86.0200    8.1873 C.3     1  UNL1        0.0224
      4 C          62.9749   84.8891    7.8832 C.3     1  UNL1        0.0065
      5 C          63.5639   84.0816    9.0017 C.3     1  UNL1        0.0277
      6 C          63.2156   84.4051   10.4243 C.ar    1  UNL1       -0.0073
      7 C          63.8046   83.5976   11.5429 C.ar    1  UNL1       -0.0015
      8 C          63.4563   83.9211   12.9656 C.ar    1  UNL1        0.0203
      9 C          62.5190   85.0521   13.2697 C.ar    1  UNL1        0.0985
     10 N          61.9300   85.8595   12.1512 N.ar    1  UNL1       -0.2471
     11 C          62.2783   85.5360   10.7285 C.ar    1  UNL1        0.0695
     12 C          59.6359   87.7991    8.9662 C.3     1  UNL1        0.0989
     13 C          59.0350   88.9588    6.7203 C.2     1  UNL1       -0.0122
     14 C          59.7598   88.9673    8.0335 C.2     1  UNL1       -0.0120
     15 C          59.1590   90.1270    5.7877 C.3     1  UNL1        0.0950
     16 N          60.4810   90.8157    5.6198 N.3     1  UNL1       -0.2947
     17 H          61.2008   90.1004    5.7222 H       1  UNL1        0.1235
     18 C          60.7847   91.5571    4.3517 C.3     1  UNL1        0.0593
     19 C          62.1278   91.4100    3.7003 C.3     1  UNL1        0.0479
     20 C          62.4316   92.1515    2.4321 C.3     1  UNL1        0.1435
     21 O          61.3922   93.0400    1.8155 O.3     1  UNL1       -0.3537
     22 C          60.0491   93.1871    2.4670 C.3     1  UNL1        0.1435
     23 C          59.7453   92.4457    3.7351 C.3     1  UNL1        0.0479
     24 C          60.9310   88.2807   11.1662 C.3     1  UNL1        0.0888
     25 C          61.9744   89.3570   11.2225 C.3     1  UNL1        0.0748
     26 C          62.8145   89.5234   12.4539 C.3     1  UNL1        0.0432
     27 C          63.8579   90.5997   12.5102 C.ar    1  UNL1       -0.0234
     28 C          64.6981   90.7661   13.7416 C.ar    1  UNL1       -0.0045
     29 C          65.7414   91.8424   13.7978 C.ar    1  UNL1       -0.0003
     30 C          65.9444   92.7522   12.6227 C.ar    1  UNL1       -0.0003
     31 C          65.1043   92.5858   11.3913 C.ar    1  UNL1       -0.0032
     32 C          64.0610   91.5096   11.3351 C.ar    1  UNL1       -0.0103
     33 C          63.2207   91.3431   10.1036 C.3     1  UNL1        0.0953
     34 N          62.1775   90.2669   10.0474 N.3     1  UNL1       -0.2934
     35 H          62.4100   89.6727    9.2516 H       1  UNL1        0.1236
@<TRIPOS>BOND
     1    13    14    2
     2    14    12    1
     3    12     1    1
     4     1    24    1
     5    25    24    1
     6    25    26    1
     7    26    27    1
     8    27    28   ar
     9    28    29   ar
    10    29    30   ar
    11    30    31   ar
    12    31    32   ar
    13    32    33    1
    14    33    34    1
    15     2     1    1
    16     2     3    1
    17     3     4    1
    18     4     5    1
    19     5     6    1
    20     6     7   ar
    21     7     8   ar
    22     8     9   ar
    23     9    10   ar
    24    10    11   ar
    25    13    15    1
    26    15    16    1
    27    16    18    1
    28    18    19    1
    29    19    20    1
    30    20    21    1
    31    21    22    1
    32    22    23    1
    33    34    25    1
    34    11     2    1
    35    23    18    1
    36    32    27   ar
    37    11     6   ar
    38    34    35    1
    39    16    17    1
@<TRIPOS>MOLECULE
*****
 35 39 0 0 0
SMALL
GASTEIGER

@<TRIPOS>ATOM
      1 N          63.8806   89.9642   13.9258 N.3     1  UNL1       -0.2641
      2 C          64.5425   91.1116   13.2220 C.3     1  UNL1        0.0981
      3 C          64.2020   91.4116   11.7924 C.3     1  UNL1        0.0224
      4 C          64.8639   92.5591   11.0886 C.3     1  UNL1        0.0065
      5 C          65.8662   93.4066   11.8145 C.3     1  UNL1        0.0277
      6 C          66.2068   93.1065   13.2442 C.ar    1  UNL1       -0.0073
      7 C          67.2092   93.9540   13.9702 C.ar    1  UNL1       -0.0015
      8 C          67.5497   93.6540   15.3999 C.ar    1  UNL1        0.0203
      9 C          66.8878   92.5065   16.1036 C.ar    1  UNL1        0.0985
     10 N          65.8854   91.6591   15.3777 N.ar    1  UNL1       -0.2471
     11 C          65.5449   91.9591   13.9479 C.ar    1  UNL1        0.0695
     12 C          63.0523   90.2131   15.1512 C.3     1  UNL1        0.0989
     13 C          62.4016   88.0630   16.4565 C.2     1  UNL1       -0.0122
     14 C          63.2035   89.3263   16.3516 C.2     1  UNL1       -0.0120
     15 C          62.5528   87.1763   17.6569 C.3     1  UNL1        0.0950
     16 N          62.5598   85.6854   17.4919 N.3     1  UNL1       -0.2947
     17 H          61.6009   85.3688   17.6357 H       1  UNL1        0.1235
     18 C          63.0287   85.0755   16.2043 C.3     1  UNL1        0.0593
     19 C          64.4078   85.3703   15.6931 C.3     1  UNL1        0.0479
     20 C          64.8767   84.7603   14.4054 C.3     1  UNL1        0.1435
     21 O          63.9665   83.8556   13.6289 O.3     1  UNL1       -0.3537
     22 C          62.5874   83.5608   14.1400 C.3     1  UNL1        0.1435
     23 C          62.1185   84.1707   15.4277 C.3     1  UNL1        0.0479
     24 C          64.0471   88.5677   13.4040 C.3     1  UNL1        0.0888
     25 C          63.1210   88.0473   12.3450 C.3     1  UNL1        0.0748
     26 C          62.4464   89.0010   11.4040 C.3     1  UNL1        0.0432
     27 C          61.5203   88.4806   10.3450 C.ar    1  UNL1       -0.0234
     28 C          60.8457   89.4342    9.4040 C.ar    1  UNL1       -0.0045
     29 C          59.9196   88.9138    8.3450 C.ar    1  UNL1       -0.0003
     30 C          59.6681   87.4397    8.2270 C.ar    1  UNL1       -0.0003
     31 C          60.3427   86.4861    9.1679 C.ar    1  UNL1       -0.0032
     32 C          61.2688   87.0065   10.2269 C.ar    1  UNL1       -0.0103
     33 C          61.9435   86.0529   11.1679 C.3     1  UNL1        0.0953
     34 N          62.8696   86.5733   12.2269 N.3     1  UNL1       -0.2934
     35 H          63.7754   86.1318   12.0688 H       1  UNL1        0.1236
@<TRIPOS>BOND
     1    13    14    2
     2    14    12    1
     3    12     1    1
     4     1    24    1
     5    25    24    1
     6    25    26    1
     7    26    27    1
     8    27    28   ar
     9    28    29   ar
    10    29    30   ar
    11    30    31   ar
    12    31    32   ar
    13    32    33    1
    14    33    34    1
    15     2     1    1
    16     2     3    1
    17     3     4    1
    18     4     5    1
    19     5     6    1
    20     6     7   ar
    21     7     8   ar
    22     8     9   ar
    23     9    10   ar
    24    10    11   ar
    25    13    15    1
    26    15    16    1
    27    16    18    1
    28    18    19    1
    29    19    20    1
    30    20    21    1
    31    21    22    1
    32    22    23    1
    33    34    25    1
    34    11     2    1
    35    23    18    1
    36    32    27   ar
    37    11     6   ar
    38    34    35    1
    39    16    17    1
@<TRIPOS>MOLECULE
*****
 35 39 0 0 0
SMALL
GASTEIGER

@<TRIPOS>ATOM
      1 N          62.5779   89.3888   12.5313 N.3     1  UNL1       -0.2641
      2 C          63.4320   90.2118   13.4495 C.3     1  UNL1        0.0981
      3 C          63.3751   89.9848   14.9311 C.3     1  UNL1        0.0224
      4 C          64.2293   90.8079   15.8493 C.3     1  UNL1        0.0065
      5 C          65.1403   91.8579   15.2859 C.3     1  UNL1        0.0277
      6 C          65.1972   92.0848   13.8043 C.ar    1  UNL1       -0.0073
      7 C          66.1082   93.1349   13.2408 C.ar    1  UNL1       -0.0015
      8 C          66.1651   93.3619   11.7591 C.ar    1  UNL1        0.0203
      9 C          65.3110   92.5388   10.8410 C.ar    1  UNL1        0.0985
     10 N          64.4000   91.4888   11.4044 N.ar    1  UNL1       -0.2471
     11 C          64.3430   91.2618   12.8861 C.ar    1  UNL1        0.0695
     12 C          61.1464   89.7699   12.2960 C.3     1  UNL1        0.0989
     13 C          60.5586   89.4426    9.7866 C.2     1  UNL1       -0.0122
     14 C          60.3522   89.0793   11.2272 C.2     1  UNL1       -0.0120
     15 C          59.7645   88.7520    8.7178 C.3     1  UNL1        0.0950
     16 N          59.5844   87.2634    8.7609 N.3     1  UNL1       -0.2947
     17 H          58.7237   87.0562    8.2542 H       1  UNL1        0.1235
     18 C          60.6447   86.3631    8.1996 C.3     1  UNL1        0.0593
     19 C          61.9955   86.2998    8.8488 C.3     1  UNL1        0.0479
     20 C          63.0559   85.3994    8.2875 C.3     1  UNL1        0.1435
     21 O          62.7654   84.5624    7.0771 O.3     1  UNL1       -0.3537
     22 C          61.4146   84.6257    6.4280 C.3     1  UNL1        0.1435
     23 C          60.3543   85.5260    6.9892 C.3     1  UNL1        0.0479
     24 C          63.1553   88.1846   11.8484 C.3     1  UNL1        0.0888
     25 C          63.2394   86.8767   12.5782 C.3     1  UNL1        0.0748
     26 C          62.7807   85.6144   11.9104 C.3     1  UNL1        0.0432
     27 C          62.8648   84.3065   12.6402 C.ar    1  UNL1       -0.0234
     28 C          62.4061   83.0441   11.9725 C.ar    1  UNL1       -0.0045
     29 C          62.4902   81.7364   12.7023 C.ar    1  UNL1       -0.0003
     30 C          63.0330   81.6910   14.0999 C.ar    1  UNL1       -0.0003
     31 C          63.4917   82.9534   14.7677 C.ar    1  UNL1       -0.0032
     32 C          63.4076   84.2612   14.0379 C.ar    1  UNL1       -0.0103
     33 C          63.8663   85.5236   14.7056 C.3     1  UNL1        0.0953
     34 N          63.7822   86.8314   13.9758 N.3     1  UNL1       -0.2934
     35 H          64.7293   87.2079   13.9362 H       1  UNL1        0.1236
@<TRIPOS>BOND
     1    13    14    2
     2    14    12    1
     3    12     1    1
     4     1    24    1
     5    25    24    1
     6    25    26    1
     7    26    27    1
     8    27    28   ar
     9    28    29   ar
    10    29    30   ar
    11    30    31   ar
    12    31    32   ar
    13    32    33    1
    14    33    34    1
    15     2     1    1
    16     2     3    1
    17     3     4    1
    18     4     5    1
    19     5     6    1
    20     6     7   ar
    21     7     8   ar
    22     8     9   ar
    23     9    10   ar
    24    10    11   ar
    25    13    15    1
    26    15    16    1
    27    16    18    1
    28    18    19    1
    29    19    20    1
    30    20    21    1
    31    21    22    1
    32    22    23    1
    33    34    25    1
    34    11     2    1
    35    23    18    1
    36    32    27   ar
    37    11     6   ar
    38    34    35    1
    39    16    17    1
@<TRIPOS>MOLECULE
*****
 35 39 0 0 0
SMALL
GASTEIGER

@<TRIPOS>ATOM
      1 N          63.8444   89.4383   14.6123 N.3     1  UNL1       -0.2641
      2 C          63.5050   88.3533   15.5909 C.3     1  UNL1        0.0981
      3 C          63.1069   88.7060   16.9934 C.3     1  UNL1        0.0224
      4 C          62.7675   87.6210   17.9720 C.3     1  UNL1        0.0065
      5 C          62.8263   86.1834   17.5481 C.3     1  UNL1        0.0277
      6 C          63.2245   85.8307   16.1456 C.ar    1  UNL1       -0.0073
      7 C          63.2833   84.3930   15.7217 C.ar    1  UNL1       -0.0015
      8 C          63.6815   84.0404   14.3192 C.ar    1  UNL1        0.0203
      9 C          64.0208   85.1253   13.3406 C.ar    1  UNL1        0.0985
     10 N          63.9620   86.5630   13.7644 N.ar    1  UNL1       -0.2471
     11 C          63.5638   86.9157   15.1670 C.ar    1  UNL1        0.0695
     12 C          65.2783   89.7992   14.3601 C.3     1  UNL1        0.0989
     13 C          66.1797   92.2201   14.6374 C.2     1  UNL1       -0.0122
     14 C          65.6227   91.1332   13.7666 C.2     1  UNL1       -0.0120
     15 C          66.5241   93.5539   14.0440 C.3     1  UNL1        0.0950
     16 N          65.7907   94.0476   12.8321 N.3     1  UNL1       -0.2947
     17 H          65.4954   95.0026   13.0354 H       1  UNL1        0.1235
     18 C          66.4800   94.0816   11.5004 C.3     1  UNL1        0.0593
     19 C          66.6126   95.3779   10.7574 C.3     1  UNL1        0.0479
     20 C          67.3020   95.4119    9.4256 C.3     1  UNL1        0.1435
     21 O          67.8588   94.1496    8.8369 O.3     1  UNL1       -0.3537
     22 C          67.7263   92.8534    9.5799 C.3     1  UNL1        0.1435
     23 C          67.0369   92.8193   10.9116 C.3     1  UNL1        0.0479
     24 C          62.7498   90.1623   13.8858 C.3     1  UNL1        0.0888
     25 C          61.9990   89.4754   12.7838 C.3     1  UNL1        0.0748
     26 C          62.7219   88.5591   11.8415 C.3     1  UNL1        0.0432
     27 C          61.9710   87.8722   10.7395 C.ar    1  UNL1       -0.0234
     28 C          62.6939   86.9559    9.7972 C.ar    1  UNL1       -0.0045
     29 C          61.9431   86.2691    8.6953 C.ar    1  UNL1       -0.0003
     30 C          60.4693   86.4984    8.5356 C.ar    1  UNL1       -0.0003
     31 C          59.7465   87.4147    9.4778 C.ar    1  UNL1       -0.0032
     32 C          60.4973   88.1016   10.5798 C.ar    1  UNL1       -0.0103
     33 C          59.7744   89.0179   11.5221 C.3     1  UNL1        0.0953
     34 N          60.5253   89.7047   12.6241 N.3     1  UNL1       -0.2934
     35 H          60.0865   89.4216   13.5003 H       1  UNL1        0.1236
@<TRIPOS>BOND
     1    13    14    2
     2    14    12    1
     3    12     1    1
     4     1    24    1
     5    25    24    1
     6    25    26    1
     7    26    27    1
     8    27    28   ar
     9    28    29   ar
    10    29    30   ar
    11    30    31   ar
    12    31    32   ar
    13    32    33    1
    14    33    34    1
    15     2     1    1
    16     2     3    1
    17     3     4    1
    18     4     5    1
    19     5     6    1
    20     6     7   ar
    21     7     8   ar
    22     8     9   ar
    23     9    10   ar
    24    10    11   ar
    25    13    15    1
    26    15    16    1
    27    16    18    1
    28    18    19    1
    29    19    20    1
    30    20    21    1
    31    21    22    1
    32    22    23    1
    33    34    25    1
    34    11     2    1
    35    23    18    1
    36    32    27   ar
    37    11     6   ar
    38    34    35    1
    39    16    17    1
@<TRIPOS>MOLECULE
*****
 35 39 0 0 0
SMALL
GASTEIGER

@<TRIPOS>ATOM
      1 N          63.2161   85.3613   12.9322 N.3     1  UNL1       -0.2641
      2 C          63.3910   84.1299   12.0936 C.3     1  UNL1        0.0981
      3 C          64.0408   84.2269   10.7452 C.3     1  UNL1        0.0224
      4 C          64.2157   82.9956    9.9066 C.3     1  UNL1        0.0065
      5 C          63.7410   81.6672   10.4165 C.3     1  UNL1        0.0277
      6 C          63.0913   81.5702   11.7650 C.ar    1  UNL1       -0.0073
      7 C          62.6165   80.2418   12.2750 C.ar    1  UNL1       -0.0015
      8 C          61.9667   80.1448   13.6234 C.ar    1  UNL1        0.0203
      9 C          61.7918   81.3762   14.4620 C.ar    1  UNL1        0.0985
     10 N          62.2665   82.7045   13.9521 N.ar    1  UNL1       -0.2471
     11 C          62.9163   82.8016   12.6035 C.ar    1  UNL1        0.0695
     12 C          64.3687   85.8956   13.7296 C.3     1  UNL1        0.0989
     13 C          64.2201   88.4474   14.1952 C.2     1  UNL1       -0.0122
     14 C          64.1564   87.0314   14.6862 C.2     1  UNL1       -0.0120
     15 C          64.0078   89.5831   15.1518 C.3     1  UNL1        0.0950
     16 N          64.0299   90.9977   14.6533 N.3     1  UNL1       -0.2947
     17 H          63.9182   91.5992   15.4694 H       1  UNL1        0.1235
     18 C          65.2214   91.5085   13.8987 C.3     1  UNL1        0.0593
     19 C          66.5868   91.4373   14.5157 C.3     1  UNL1        0.0479
     20 C          67.7783   91.9481   13.7610 C.3     1  UNL1        0.1435
     21 O          67.6044   92.5300   12.3895 O.3     1  UNL1       -0.3537
     22 C          66.2390   92.6012   11.7726 C.3     1  UNL1        0.1435
     23 C          65.0475   92.0904   12.5271 C.3     1  UNL1        0.0479
     24 C          61.8885   86.0582   12.9734 C.3     1  UNL1        0.0888
     25 C          61.4450   86.8963   11.8110 C.3     1  UNL1        0.0748
     26 C          60.8430   86.2436   10.6022 C.3     1  UNL1        0.0432
     27 C          60.3995   87.0817    9.4398 C.ar    1  UNL1       -0.0234
     28 C          59.7975   86.4289    8.2310 C.ar    1  UNL1       -0.0045
     29 C          59.3540   87.2670    7.0687 C.ar    1  UNL1       -0.0003
     30 C          59.5126   88.7579    7.1153 C.ar    1  UNL1       -0.0003
     31 C          60.1147   89.4107    8.3242 C.ar    1  UNL1       -0.0032
     32 C          60.5581   88.5726    9.4864 C.ar    1  UNL1       -0.0103
     33 C          61.1602   89.2253   10.6954 C.3     1  UNL1        0.0953
     34 N          61.6036   88.3872   11.8576 N.3     1  UNL1       -0.2934
     35 H          61.0827   88.7134   12.6716 H       1  UNL1        0.1236
@<TRIPOS>BOND
     1    13    14    2
     2    14    12    1
     3    12     1    1
     4     1    24    1
     5    25    24    1
     6    25    26    1
     7    26    27    1
     8    27    28   ar
     9    28    29   ar
    10    29    30   ar
    11    30    31   ar
    12    31    32   ar
    13    32    33    1
    14    33    34    1
    15     2     1    1
    16     2     3    1
    17     3     4    1
    18     4     5    1
    19     5     6    1
    20     6     7   ar
    21     7     8   ar
    22     8     9   ar
    23     9    10   ar
    24    10    11   ar
    25    13    15    1
    26    15    16    1
    27    16    18    1
    28    18    19    1
    29    19    20    1
    30    20    21    1
    31    21    22    1
    32    22    23    1
    33    34    25    1
    34    11     2    1
    35    23    18    1
    36    32    27   ar
    37    11     6   ar
    38    34    35    1
    39    16    17    1
