@<TRIPOS>MOLECULE
*****
 44 49 0 0 0
SMALL
GASTEIGER

@<TRIPOS>ATOM
      1 C          61.2286   88.3800    9.5936 C.ar    1  UNL1        0.1512
      2 C          60.5096   89.5104    8.9189 C.ar    1  UNL1        0.0619
      3 C          59.9294   88.9913    7.6368 C.ar    1  UNL1        0.0987
      4 S          60.2897   87.5400    7.5191 S.2     1  UNL1       -0.0618
      5 C          61.0927   87.1622    8.7284 C.ar    1  UNL1        0.1178
      6 N          59.1292   89.7843    6.6464 N.ar    1  UNL1       -0.2823
      7 C          57.6335   89.8889    6.6032 C.ar    1  UNL1        0.1831
      8 N          57.2643   90.7811    5.4553 N.ar    1  UNL1       -0.2236
      9 C          58.5318   91.2278    4.7890 C.ar    1  UNL1        0.0991
     10 C          58.7853   92.1160    3.6071 C.ar    1  UNL1        0.0206
     11 C          60.1914   92.3880    3.1614 C.ar    1  UNL1        0.0017
     12 C          61.3440   91.7720    3.8975 C.ar    1  UNL1        0.0016
     13 C          61.0905   90.8838    5.0794 C.ar    1  UNL1        0.0191
     14 C          59.6844   90.6117    5.5251 C.ar    1  UNL1        0.0835
     15 C          60.4450   93.2762    1.9795 C.ar    1  UNL1        0.0044
     16 C          59.3671   93.4925    0.9589 C.ar    1  UNL1        0.0208
     17 C          59.6206   94.3806   -0.2230 C.ar    1  UNL1        0.1003
     18 N          60.9520   95.0526   -0.3843 N.ar    1  UNL1       -0.2292
     19 C          62.0299   94.8363    0.6362 C.ar    1  UNL1        0.1318
     20 C          61.7763   93.9481    1.8181 C.ar    1  UNL1        0.0343
     21 N          63.3612   95.5082    0.4749 N.pl3   1  UNL1       -0.2881
     22 C          64.0436   95.5095   -0.8609 C.3     1  UNL1        0.1242
     23 C          65.3750   96.1815   -1.0223 C.3     1  UNL1        0.1636
     24 O          66.0239   96.8520    0.1521 O.3     1  UNL1       -0.3501
     25 C          65.3415   96.8506    1.4879 C.3     1  UNL1        0.1636
     26 C          64.0101   96.1787    1.6493 C.3     1  UNL1        0.1242
     27 C          61.6602   85.8048    9.0212 C.2     1  UNL1        0.2518
     28 N          61.7202   85.3059   10.4345 N.am    1  UNL1       -0.3248
     29 O          62.1676   84.9464    7.9006 O.2     1  UNL1       -0.2697
     30 H          61.3871   85.8693   11.1700 H       1  UNL1        0.1453
     31 H          62.0926   84.4150   10.6266 H       1  UNL1        0.1453
     32 O          61.9558   88.4543   10.9034 O.3     1  UNL1       -0.4740
     33 C          60.7017   90.1043   12.4702 C.3     1  UNL1        0.0523
     34 C          61.9331   89.7232   11.7030 C.3     1  UNL1        0.1882
     35 C          63.1416   90.6111   11.7353 C.ar    1  UNL1        0.0211
     36 C          63.4714   91.4724   10.5523 C.ar    1  UNL1       -0.0009
     37 C          64.6799   92.3603   10.5847 C.ar    1  UNL1       -0.0002
     38 C          65.5588   92.3868   11.7999 C.ar    1  UNL1       -0.0001
     39 C          65.2291   91.5255   12.9828 C.ar    1  UNL1        0.0036
     40 C          64.0205   90.6375   12.9505 C.ar    1  UNL1        0.0708
     41 C          63.6908   89.7762   14.1334 C.3     1  UNL1        0.4184
     42 F          63.3611   88.9148   15.3164 F       1  UNL1       -0.1659
     43 F          64.2306   88.5775   13.4111 F       1  UNL1       -0.1659
     44 F          63.1511   90.9748   14.8558 F       1  UNL1       -0.1659
@<TRIPOS>BOND
     1    34    33    1
     2    34    32    1
     3    32     1    1
     4     1     2   ar
     5     2     3   ar
     6     3     6    1
     7     6     7   ar
     8     7     8   ar
     9     8     9   ar
    10     9    10   ar
    11    10    11   ar
    12    11    15    1
    13    15    16   ar
    14    16    17   ar
    15    17    18   ar
    16    18    19   ar
    17    19    21    1
    18    21    22    1
    19    22    23    1
    20    23    24    1
    21    24    25    1
    22    25    26    1
    23    19    20   ar
    24    11    12   ar
    25    12    13   ar
    26    13    14   ar
    27     3     4   ar
    28     4     5   ar
    29     5    27    1
    30    27    28   am
    31    27    29    2
    32    34    35    1
    33    35    36   ar
    34    36    37   ar
    35    37    38   ar
    36    38    39   ar
    37    39    40   ar
    38    40    41    1
    39    41    42    1
    40    41    43    1
    41    41    44    1
    42     5     1   ar
    43    40    35   ar
    44    14     6   ar
    45    14     9   ar
    46    20    15   ar
    47    26    21    1
    48    28    30    1
    49    28    31    1
@<TRIPOS>MOLECULE
*****
 44 49 0 0 0
SMALL
GASTEIGER

@<TRIPOS>ATOM
      1 C          60.2852   88.6392    8.9625 C.ar    1  UNL1        0.1512
      2 C          59.9180   89.9179    8.2696 C.ar    1  UNL1        0.0619
      3 C          59.5627   89.5904    6.8497 C.ar    1  UNL1        0.0987
      4 S          59.7102   88.1091    6.6648 S.2     1  UNL1       -0.0618
      5 C          60.1568   87.5213    7.9705 C.ar    1  UNL1        0.1178
      6 N          59.1349   90.5717    5.7989 N.ar    1  UNL1       -0.2823
      7 C          57.7428   91.0903    5.5914 C.ar    1  UNL1        0.1831
      8 N          57.7717   92.0458    4.4355 N.ar    1  UNL1       -0.2236
      9 C          59.1816   92.1178    3.9286 C.ar    1  UNL1        0.0991
     10 C          59.8072   92.8952    2.8087 C.ar    1  UNL1        0.0206
     11 C          61.2752   92.7615    2.5314 C.ar    1  UNL1        0.0017
     12 C          62.1177   91.8504    3.3741 C.ar    1  UNL1        0.0016
     13 C          61.4922   91.0730    4.4940 C.ar    1  UNL1        0.0191
     14 C          60.0242   91.2067    4.7713 C.ar    1  UNL1        0.0835
     15 C          61.9008   93.5389    1.4114 C.ar    1  UNL1        0.0044
     16 C          63.1665   94.3084    1.6480 C.ar    1  UNL1        0.0208
     17 C          63.7921   95.0858    0.5281 C.ar    1  UNL1        0.1003
     18 N          63.1520   95.0937   -0.8285 N.ar    1  UNL1       -0.2292
     19 C          61.8863   94.3242   -1.0651 C.ar    1  UNL1        0.1318
     20 C          61.2607   93.5468    0.0549 C.ar    1  UNL1        0.0343
     21 N          61.2463   94.3321   -2.4216 N.pl3   1  UNL1       -0.2881
     22 C          59.7862   94.0194   -2.5638 C.3     1  UNL1        0.1242
     23 C          59.1460   94.0273   -3.9204 C.3     1  UNL1        0.1636
     24 O          59.9661   94.3479   -5.1347 O.3     1  UNL1       -0.3501
     25 C          61.4263   94.6606   -4.9926 C.3     1  UNL1        0.1636
     26 C          62.0663   94.6527   -3.6360 C.3     1  UNL1        0.1242
     27 C          60.4274   86.0702    8.2376 C.2     1  UNL1        0.2518
     28 N          60.9596   85.6397    9.5722 N.am    1  UNL1       -0.3248
     29 O          60.1657   85.0496    7.1698 O.2     1  UNL1       -0.2697
     30 H          61.1313   86.3095   10.2730 H       1  UNL1        0.1453
     31 H          61.1372   84.6873    9.7475 H       1  UNL1        0.1453
     32 O          60.7067   88.5023   10.3954 O.3     1  UNL1       -0.4740
     33 C          62.8703   89.9103   10.1015 C.3     1  UNL1        0.0523
     34 C          62.1189   88.8127   10.7947 C.3     1  UNL1        0.1882
     35 C          62.7796   88.0254   11.8872 C.ar    1  UNL1        0.0211
     36 C          62.7764   86.5262   11.8385 C.ar    1  UNL1       -0.0009
     37 C          63.4371   85.7389   12.9311 C.ar    1  UNL1       -0.0002
     38 C          64.1011   86.4508   14.0722 C.ar    1  UNL1       -0.0001
     39 C          64.1044   87.9499   14.1209 C.ar    1  UNL1        0.0036
     40 C          63.4436   88.7373   13.0284 C.ar    1  UNL1        0.0708
     41 C          63.4469   90.2364   13.0770 C.3     1  UNL1        0.4184
     42 F          63.4502   91.7357   13.1257 F       1  UNL1       -0.1659
     43 F          64.9266   90.2412   12.8310 F       1  UNL1       -0.1659
     44 F          61.9673   90.2318   13.3231 F       1  UNL1       -0.1659
@<TRIPOS>BOND
     1    34    33    1
     2    34    32    1
     3    32     1    1
     4     1     2   ar
     5     2     3   ar
     6     3     6    1
     7     6     7   ar
     8     7     8   ar
     9     8     9   ar
    10     9    10   ar
    11    10    11   ar
    12    11    15    1
    13    15    16   ar
    14    16    17   ar
    15    17    18   ar
    16    18    19   ar
    17    19    21    1
    18    21    22    1
    19    22    23    1
    20    23    24    1
    21    24    25    1
    22    25    26    1
    23    19    20   ar
    24    11    12   ar
    25    12    13   ar
    26    13    14   ar
    27     3     4   ar
    28     4     5   ar
    29     5    27    1
    30    27    28   am
    31    27    29    2
    32    34    35    1
    33    35    36   ar
    34    36    37   ar
    35    37    38   ar
    36    38    39   ar
    37    39    40   ar
    38    40    41    1
    39    41    42    1
    40    41    43    1
    41    41    44    1
    42     5     1   ar
    43    40    35   ar
    44    14     6   ar
    45    14     9   ar
    46    20    15   ar
    47    26    21    1
    48    28    30    1
    49    28    31    1
@<TRIPOS>MOLECULE
*****
 44 49 0 0 0
SMALL
GASTEIGER

@<TRIPOS>ATOM
      1 C          60.9887   88.4977    9.3329 C.ar    1  UNL1        0.1512
      2 C          60.4110   89.6987    8.6444 C.ar    1  UNL1        0.0619
      3 C          59.8138   89.2457    7.3452 C.ar    1  UNL1        0.0987
      4 S          60.0224   87.7647    7.2305 S.2     1  UNL1       -0.0618
      5 C          60.7485   87.3024    8.4590 C.ar    1  UNL1        0.1178
      6 N          59.1283   90.1202    6.3375 N.ar    1  UNL1       -0.2823
      7 C          57.6549   90.3909    6.2623 C.ar    1  UNL1        0.1831
      8 N          57.4119   91.3154    5.1064 N.ar    1  UNL1       -0.2236
      9 C          58.7352   91.6161    4.4671 C.ar    1  UNL1        0.0991
     10 C          59.1112   92.4670    3.2905 C.ar    1  UNL1        0.0206
     11 C          60.5481   92.5793    2.8748 C.ar    1  UNL1        0.0017
     12 C          61.6089   91.8405    3.6357 C.ar    1  UNL1        0.0016
     13 C          61.2328   90.9896    4.8123 C.ar    1  UNL1        0.0191
     14 C          59.7960   90.8773    5.2280 C.ar    1  UNL1        0.0835
     15 C          60.9242   93.4303    1.6982 C.ar    1  UNL1        0.0044
     16 C          62.0111   94.4555    1.8310 C.ar    1  UNL1        0.0208
     17 C          62.3872   95.3064    0.6544 C.ar    1  UNL1        0.1003
     18 N          61.6764   95.1322   -0.6550 N.ar    1  UNL1       -0.2292
     19 C          60.5895   94.1071   -0.7878 C.ar    1  UNL1        0.1318
     20 C          60.2134   93.2561    0.3889 C.ar    1  UNL1        0.0343
     21 N          59.8787   93.9328   -2.0971 N.pl3   1  UNL1       -0.2881
     22 C          58.8119   92.8879   -2.2381 C.3     1  UNL1        0.1242
     23 C          58.1010   92.7136   -3.5475 C.3     1  UNL1        0.1636
     24 O          58.4570   93.5844   -4.7158 O.3     1  UNL1       -0.3501
     25 C          59.5239   94.6294   -4.5748 C.3     1  UNL1        0.1636
     26 C          60.2347   94.8036   -3.2654 C.3     1  UNL1        0.1242
     27 C          61.1619   85.8923    8.7606 C.2     1  UNL1        0.2518
     28 N          61.3845   85.4635   10.1806 N.am    1  UNL1       -0.3248
     29 O          61.3526   84.9112    7.6421 O.2     1  UNL1       -0.2697
     30 H          61.2594   86.1075   10.9147 H       1  UNL1        0.1453
     31 H          61.6559   84.5380   10.3785 H       1  UNL1        0.1453
     32 O          61.6844   88.4928   10.6617 O.3     1  UNL1       -0.4740
     33 C          60.5272   90.1095   12.3342 C.3     1  UNL1        0.0523
     34 C          61.7151   89.7385   11.4968 C.3     1  UNL1        0.1882
     35 C          62.9337   90.6131   11.4944 C.ar    1  UNL1        0.0211
     36 C          63.2303   91.4829   10.3089 C.ar    1  UNL1       -0.0009
     37 C          64.4490   92.3575   10.3066 C.ar    1  UNL1       -0.0002
     38 C          65.3709   92.3623   11.4897 C.ar    1  UNL1       -0.0001
     39 C          65.0743   91.4926   12.6752 C.ar    1  UNL1        0.0036
     40 C          63.8557   90.6179   12.6776 C.ar    1  UNL1        0.0708
     41 C          63.5591   89.7482   13.8631 C.3     1  UNL1        0.4184
     42 F          63.2625   88.8783   15.0486 F       1  UNL1       -0.1659
     43 F          63.9468   88.5353   13.0702 F       1  UNL1       -0.1659
     44 F          63.1715   90.9609   14.6560 F       1  UNL1       -0.1659
@<TRIPOS>BOND
     1    34    33    1
     2    34    32    1
     3    32     1    1
     4     1     2   ar
     5     2     3   ar
     6     3     6    1
     7     6     7   ar
     8     7     8   ar
     9     8     9   ar
    10     9    10   ar
    11    10    11   ar
    12    11    15    1
    13    15    16   ar
    14    16    17   ar
    15    17    18   ar
    16    18    19   ar
    17    19    21    1
    18    21    22    1
    19    22    23    1
    20    23    24    1
    21    24    25    1
    22    25    26    1
    23    19    20   ar
    24    11    12   ar
    25    12    13   ar
    26    13    14   ar
    27     3     4   ar
    28     4     5   ar
    29     5    27    1
    30    27    28   am
    31    27    29    2
    32    34    35    1
    33    35    36   ar
    34    36    37   ar
    35    37    38   ar
    36    38    39   ar
    37    39    40   ar
    38    40    41    1
    39    41    42    1
    40    41    43    1
    41    41    44    1
    42     5     1   ar
    43    40    35   ar
    44    14     6   ar
    45    14     9   ar
    46    20    15   ar
    47    26    21    1
    48    28    30    1
    49    28    31    1
@<TRIPOS>MOLECULE
*****
 44 49 0 0 0
SMALL
GASTEIGER

@<TRIPOS>ATOM
      1 C          62.4586   83.6350   12.8992 C.ar    1  UNL1        0.1512
      2 C          62.7596   85.0481   13.3022 C.ar    1  UNL1        0.0619
      3 C          62.7447   85.1162   14.8005 C.ar    1  UNL1        0.0987
      4 S          62.4346   83.7451   15.3237 S.2     1  UNL1       -0.0618
      5 C          62.2577   82.8296   14.1487 C.ar    1  UNL1        0.1178
      6 N          62.9959   86.3404   15.6300 N.ar    1  UNL1       -0.2823
      7 C          62.6251   86.5194   17.0724 C.ar    1  UNL1        0.1831
      8 N          63.0621   87.8902   17.4966 N.ar    1  UNL1       -0.2236
      9 C          63.7029   88.5584   16.3165 C.ar    1  UNL1        0.0991
     10 C          64.3184   89.9153   16.1433 C.ar    1  UNL1        0.0206
     11 C          64.8930   90.3143   14.8164 C.ar    1  UNL1        0.0017
     12 C          64.8521   89.3565   13.6628 C.ar    1  UNL1        0.0016
     13 C          64.2367   87.9996   13.8360 C.ar    1  UNL1        0.0191
     14 C          63.6621   87.6006   15.1628 C.ar    1  UNL1        0.0835
     15 C          65.5085   91.6713   14.6431 C.ar    1  UNL1        0.0044
     16 C          66.0014   92.4296   15.8398 C.ar    1  UNL1        0.0208
     17 C          66.6169   93.7865   15.6666 C.ar    1  UNL1        0.1003
     18 N          66.7395   94.3851   14.2967 N.ar    1  UNL1       -0.2292
     19 C          66.2467   93.6267   13.1000 C.ar    1  UNL1        0.1318
     20 C          65.6312   92.2698   13.2733 C.ar    1  UNL1        0.0343
     21 N          66.3694   94.2253   11.7301 N.pl3   1  UNL1       -0.2881
     22 C          66.7968   93.3708   10.5738 C.3     1  UNL1        0.1242
     23 C          66.9195   93.9693    9.2039 C.3     1  UNL1        0.1636
     24 O          66.6147   95.4224    8.9902 O.3     1  UNL1       -0.3501
     25 C          66.1872   96.2769   10.1466 C.3     1  UNL1        0.1636
     26 C          66.0645   95.6784   11.5165 C.3     1  UNL1        0.1242
     27 C          61.9364   81.3657   14.2120 C.2     1  UNL1        0.2518
     28 N          63.0425   80.3531   14.1813 N.am    1  UNL1       -0.3248
     29 O          60.5089   80.9146   14.3059 O.2     1  UNL1       -0.2697
     30 H          63.9794   80.6491   14.1197 H       1  UNL1        0.1453
     31 H          62.8316   79.3923   14.2229 H       1  UNL1        0.1453
     32 O          62.3735   83.1179   11.4938 O.3     1  UNL1       -0.4740
     33 C          63.9089   83.6190    9.4587 C.3     1  UNL1        0.0523
     34 C          62.7606   84.0013   10.3449 C.3     1  UNL1        0.1882
     35 C          61.9995   85.2668   10.0823 C.ar    1  UNL1        0.0211
     36 C          61.3839   86.0221   11.2227 C.ar    1  UNL1       -0.0009
     37 C          60.6227   87.2877   10.9601 C.ar    1  UNL1       -0.0002
     38 C          60.4772   87.7980    9.5571 C.ar    1  UNL1       -0.0001
     39 C          61.0928   87.0427    8.4168 C.ar    1  UNL1        0.0036
     40 C          61.8540   85.7771    8.6793 C.ar    1  UNL1        0.0708
     41 C          62.4696   85.0218    7.5390 C.3     1  UNL1        0.4184
     42 F          63.0853   84.2666    6.3986 F       1  UNL1       -0.1659
     43 F          63.7923   85.6692    7.8243 F       1  UNL1       -0.1659
     44 F          61.1470   84.3745    7.2536 F       1  UNL1       -0.1659
@<TRIPOS>BOND
     1    34    33    1
     2    34    32    1
     3    32     1    1
     4     1     2   ar
     5     2     3   ar
     6     3     6    1
     7     6     7   ar
     8     7     8   ar
     9     8     9   ar
    10     9    10   ar
    11    10    11   ar
    12    11    15    1
    13    15    16   ar
    14    16    17   ar
    15    17    18   ar
    16    18    19   ar
    17    19    21    1
    18    21    22    1
    19    22    23    1
    20    23    24    1
    21    24    25    1
    22    25    26    1
    23    19    20   ar
    24    11    12   ar
    25    12    13   ar
    26    13    14   ar
    27     3     4   ar
    28     4     5   ar
    29     5    27    1
    30    27    28   am
    31    27    29    2
    32    34    35    1
    33    35    36   ar
    34    36    37   ar
    35    37    38   ar
    36    38    39   ar
    37    39    40   ar
    38    40    41    1
    39    41    42    1
    40    41    43    1
    41    41    44    1
    42     5     1   ar
    43    40    35   ar
    44    14     6   ar
    45    14     9   ar
    46    20    15   ar
    47    26    21    1
    48    28    30    1
    49    28    31    1
@<TRIPOS>MOLECULE
*****
 44 49 0 0 0
SMALL
GASTEIGER

@<TRIPOS>ATOM
      1 C          62.8000   85.7576   13.1037 C.ar    1  UNL1        0.1512
      2 C          62.0569   85.2711   11.8950 C.ar    1  UNL1        0.0619
      3 C          61.9201   86.4204   10.9410 C.ar    1  UNL1        0.0987
      4 S          62.5787   87.6175   11.5601 S.2     1  UNL1       -0.0618
      5 C          63.1225   87.2079   12.8967 C.ar    1  UNL1        0.1178
      6 N          61.2435   86.3800    9.6029 N.ar    1  UNL1       -0.2823
      7 C          60.8947   85.1437    8.8283 C.ar    1  UNL1        0.1831
      8 N          60.2326   85.5684    7.5511 N.ar    1  UNL1       -0.2236
      9 C          60.1722   87.0671    7.5363 C.ar    1  UNL1        0.0991
     10 C          59.6290   88.0398    6.5320 C.ar    1  UNL1        0.0206
     11 C          59.7106   89.5142    6.7958 C.ar    1  UNL1        0.0017
     12 C          60.3354   90.0158    8.0639 C.ar    1  UNL1        0.0016
     13 C          60.8786   89.0430    9.0682 C.ar    1  UNL1        0.0191
     14 C          60.7970   87.5687    8.8044 C.ar    1  UNL1        0.0835
     15 C          59.1674   90.4870    5.7915 C.ar    1  UNL1        0.0044
     16 C          57.6895   90.7280    5.7041 C.ar    1  UNL1        0.0208
     17 C          57.1462   91.7008    4.6999 C.ar    1  UNL1        0.1003
     18 N          58.0809   92.4326    3.7829 N.ar    1  UNL1       -0.2292
     19 C          59.5589   92.1916    3.8702 C.ar    1  UNL1        0.1318
     20 C          60.1021   91.2188    4.8746 C.ar    1  UNL1        0.0343
     21 N          60.4936   92.9234    2.9533 N.pl3   1  UNL1       -0.2881
     22 C          60.0362   94.1695    2.2548 C.3     1  UNL1        0.1242
     23 C          60.9710   94.9014    1.3378 C.3     1  UNL1        0.1636
     24 O          62.3630   94.3871    1.1195 O.3     1  UNL1       -0.3501
     25 C          62.8204   93.1409    1.8181 C.3     1  UNL1        0.1636
     26 C          61.8856   92.4091    2.7350 C.3     1  UNL1        0.1242
     27 C          63.8595   88.0931   13.8576 C.2     1  UNL1        0.2518
     28 N          64.2439   87.5744   15.2115 N.am    1  UNL1       -0.3248
     29 O          64.2121   89.4971   13.4645 O.2     1  UNL1       -0.2697
     30 H          64.0124   86.6529   15.4695 H       1  UNL1        0.1453
     31 H          64.7276   88.1554   15.8422 H       1  UNL1        0.1453
     32 O          63.1578   84.9380   14.3079 O.3     1  UNL1       -0.4740
     33 C          64.6110   83.0212   15.2896 C.3     1  UNL1        0.0523
     34 C          63.8612   83.6241   14.1388 C.3     1  UNL1        0.1882
     35 C          63.8150   82.9130   12.8188 C.ar    1  UNL1        0.0211
     36 C          64.6803   83.3786   11.6854 C.ar    1  UNL1       -0.0009
     37 C          64.6340   82.6675   10.3655 C.ar    1  UNL1       -0.0002
     38 C          63.7225   81.4910   10.1789 C.ar    1  UNL1       -0.0001
     39 C          62.8573   81.0254   11.3123 C.ar    1  UNL1        0.0036
     40 C          62.9035   81.7365   12.6323 C.ar    1  UNL1        0.0708
     41 C          62.0383   81.2710   13.7656 C.3     1  UNL1        0.4184
     42 F          61.1729   80.8054   14.8990 F       1  UNL1       -0.1659
     43 F          61.2765   82.5621   13.7144 F       1  UNL1       -0.1659
     44 F          62.8000   79.9798   13.8169 F       1  UNL1       -0.1659
@<TRIPOS>BOND
     1    34    33    1
     2    34    32    1
     3    32     1    1
     4     1     2   ar
     5     2     3   ar
     6     3     6    1
     7     6     7   ar
     8     7     8   ar
     9     8     9   ar
    10     9    10   ar
    11    10    11   ar
    12    11    15    1
    13    15    16   ar
    14    16    17   ar
    15    17    18   ar
    16    18    19   ar
    17    19    21    1
    18    21    22    1
    19    22    23    1
    20    23    24    1
    21    24    25    1
    22    25    26    1
    23    19    20   ar
    24    11    12   ar
    25    12    13   ar
    26    13    14   ar
    27     3     4   ar
    28     4     5   ar
    29     5    27    1
    30    27    28   am
    31    27    29    2
    32    34    35    1
    33    35    36   ar
    34    36    37   ar
    35    37    38   ar
    36    38    39   ar
    37    39    40   ar
    38    40    41    1
    39    41    42    1
    40    41    43    1
    41    41    44    1
    42     5     1   ar
    43    40    35   ar
    44    14     6   ar
    45    14     9   ar
    46    20    15   ar
    47    26    21    1
    48    28    30    1
    49    28    31    1
@<TRIPOS>MOLECULE
*****
 44 49 0 0 0
SMALL
GASTEIGER

@<TRIPOS>ATOM
      1 C          63.6570   86.9753   13.4184 C.ar    1  UNL1        0.1512
      2 C          62.9435   86.2709   12.3027 C.ar    1  UNL1        0.0619
      3 C          62.3610   87.3126   11.3942 C.ar    1  UNL1        0.0987
      4 S          62.7144   88.6609   11.9483 S.2     1  UNL1       -0.0618
      5 C          63.5154   88.4525   13.1993 C.ar    1  UNL1        0.1178
      6 N          61.5648   87.0518   10.1500 N.ar    1  UNL1       -0.2823
      7 C          61.1788   85.7041    9.6165 C.ar    1  UNL1        0.1831
      8 N          60.3902   85.9124    8.3576 N.ar    1  UNL1       -0.2236
      9 C          60.2889   87.3889    8.1130 C.ar    1  UNL1        0.0991
     10 C          59.6295   88.1830    7.0248 C.ar    1  UNL1        0.0206
     11 C          59.6959   89.6814    7.0442 C.ar    1  UNL1        0.0017
     12 C          60.4218   90.3856    8.1520 C.ar    1  UNL1        0.0016
     13 C          61.0813   89.5915    9.2403 C.ar    1  UNL1        0.0191
     14 C          61.0149   88.0931    9.2208 C.ar    1  UNL1        0.0835
     15 C          59.0364   90.4756    5.9559 C.ar    1  UNL1        0.0044
     16 C          57.5430   90.6127    5.9272 C.ar    1  UNL1        0.0208
     17 C          56.8835   91.4069    4.8390 C.ar    1  UNL1        0.1003
     18 N          57.7175   92.0640    3.7794 N.ar    1  UNL1       -0.2292
     19 C          59.2109   91.9270    3.8081 C.ar    1  UNL1        0.1318
     20 C          59.8704   91.1327    4.8964 C.ar    1  UNL1        0.0343
     21 N          60.0449   92.5841    2.7485 N.pl3   1  UNL1       -0.2881
     22 C          61.5338   92.6665    2.9099 C.3     1  UNL1        0.1242
     23 C          62.3679   93.3236    1.8503 C.3     1  UNL1        0.1636
     24 O          61.7129   93.8983    0.6294 O.3     1  UNL1       -0.3501
     25 C          60.2238   93.8159    0.4681 C.3     1  UNL1        0.1636
     26 C          59.3898   93.1588    1.5276 C.3     1  UNL1        0.1242
     27 C          64.0764   89.5318   14.0772 C.2     1  UNL1        0.2518
     28 N          63.9555   89.4241   15.5684 N.am    1  UNL1       -0.3248
     29 O          64.7581   90.7188   13.4637 O.2     1  UNL1       -0.2697
     30 H          63.5080   88.6450   15.9710 H       1  UNL1        0.1453
     31 H          64.3237   90.1324   16.1445 H       1  UNL1        0.1453
     32 O          64.3843   86.3181   14.5537 O.3     1  UNL1       -0.4740
     33 C          66.4824   84.7858   14.5481 C.3     1  UNL1        0.0523
     34 C          65.0046   84.9656   14.3642 C.3     1  UNL1        0.1882
     35 C          64.1472   83.7929   13.9908 C.ar    1  UNL1        0.0211
     36 C          64.5503   82.9006   12.8544 C.ar    1  UNL1       -0.0009
     37 C          63.6929   81.7279   12.4809 C.ar    1  UNL1       -0.0002
     38 C          62.4323   81.4474   13.2439 C.ar    1  UNL1       -0.0001
     39 C          62.0291   82.3396   14.3802 C.ar    1  UNL1        0.0036
     40 C          62.8866   83.5124   14.7537 C.ar    1  UNL1        0.0708
     41 C          62.4834   84.4045   15.8901 C.3     1  UNL1        0.4184
     42 F          62.0802   85.2968   17.0265 F       1  UNL1       -0.1659
     43 F          61.2302   84.7758   15.1540 F       1  UNL1       -0.1659
     44 F          63.7365   84.0334   16.6262 F       1  UNL1       -0.1659
@<TRIPOS>BOND
     1    34    33    1
     2    34    32    1
     3    32     1    1
     4     1     2   ar
     5     2     3   ar
     6     3     6    1
     7     6     7   ar
     8     7     8   ar
     9     8     9   ar
    10     9    10   ar
    11    10    11   ar
    12    11    15    1
    13    15    16   ar
    14    16    17   ar
    15    17    18   ar
    16    18    19   ar
    17    19    21    1
    18    21    22    1
    19    22    23    1
    20    23    24    1
    21    24    25    1
    22    25    26    1
    23    19    20   ar
    24    11    12   ar
    25    12    13   ar
    26    13    14   ar
    27     3     4   ar
    28     4     5   ar
    29     5    27    1
    30    27    28   am
    31    27    29    2
    32    34    35    1
    33    35    36   ar
    34    36    37   ar
    35    37    38   ar
    36    38    39   ar
    37    39    40   ar
    38    40    41    1
    39    41    42    1
    40    41    43    1
    41    41    44    1
    42     5     1   ar
    43    40    35   ar
    44    14     6   ar
    45    14     9   ar
    46    20    15   ar
    47    26    21    1
    48    28    30    1
    49    28    31    1
@<TRIPOS>MOLECULE
*****
 44 49 0 0 0
SMALL
GASTEIGER

@<TRIPOS>ATOM
      1 C          60.2531   87.6709    8.7712 C.ar    1  UNL1        0.1512
      2 C          59.9559   88.0763    7.3579 C.ar    1  UNL1        0.0619
      3 C          59.6375   89.5421    7.3533 C.ar    1  UNL1        0.0987
      4 S          59.7380   90.0427    8.7637 S.2     1  UNL1       -0.0618
      5 C          60.1185   88.8862    9.6400 C.ar    1  UNL1        0.1178
      6 N          59.2813   90.3632    6.1496 N.ar    1  UNL1       -0.2823
      7 C          57.9056   90.8308    5.7771 C.ar    1  UNL1        0.1831
      8 N          58.0123   91.6175    4.5043 N.ar    1  UNL1       -0.2236
      9 C          59.4539   91.6360    4.0903 C.ar    1  UNL1        0.0991
     10 C          60.1537   92.2586    2.9187 C.ar    1  UNL1        0.0206
     11 C          61.6379   92.1059    2.7640 C.ar    1  UNL1        0.0017
     12 C          62.4222   91.3307    3.7809 C.ar    1  UNL1        0.0016
     13 C          61.7223   90.7081    4.9524 C.ar    1  UNL1        0.0191
     14 C          60.2382   90.8608    5.1071 C.ar    1  UNL1        0.0835
     15 C          62.3378   92.7285    1.5924 C.ar    1  UNL1        0.0044
     16 C          63.7841   93.1116    1.6998 C.ar    1  UNL1        0.0208
     17 C          64.4840   93.7341    0.5283 C.ar    1  UNL1        0.1003
     18 N          63.7377   93.9737   -0.7507 N.ar    1  UNL1       -0.2292
     19 C          62.2914   93.5906   -0.8580 C.ar    1  UNL1        0.1318
     20 C          61.5915   92.9680    0.3136 C.ar    1  UNL1        0.0343
     21 N          61.5450   93.8301   -2.1369 N.pl3   1  UNL1       -0.2881
     22 C          60.0719   93.5568   -2.2080 C.3     1  UNL1        0.1242
     23 C          59.3255   93.7963   -3.4869 C.3     1  UNL1        0.1636
     24 O          60.0522   94.3092   -4.6947 O.3     1  UNL1       -0.3501
     25 C          61.5255   94.5825   -4.6235 C.3     1  UNL1        0.1636
     26 C          62.2718   94.3430   -3.3447 C.3     1  UNL1        0.1242
     27 C          60.3275   88.9363   11.1246 C.2     1  UNL1        0.2518
     28 N          59.7010   87.8966   12.0057 N.am    1  UNL1       -0.3248
     29 O          61.1632   90.0262   11.7279 O.2     1  UNL1       -0.2697
     30 H          59.1526   87.1813   11.6097 H       1  UNL1        0.1453
     31 H          59.8383   87.9295   12.9801 H       1  UNL1        0.1453
     32 O          60.6205   86.2923    9.2343 O.3     1  UNL1       -0.4740
     33 C          62.9113   85.5329    8.2723 C.3     1  UNL1        0.0523
     34 C          62.0611   85.9301    9.4425 C.3     1  UNL1        0.1882
     35 C          62.6515   85.9651   10.8210 C.ar    1  UNL1        0.0211
     36 C          62.7300   87.2620   11.5706 C.ar    1  UNL1       -0.0009
     37 C          63.3204   87.2969   12.9490 C.ar    1  UNL1       -0.0002
     38 C          63.8323   86.0350   13.5779 C.ar    1  UNL1       -0.0001
     39 C          63.7538   84.7382   12.8283 C.ar    1  UNL1        0.0036
     40 C          63.1634   84.7031   11.4498 C.ar    1  UNL1        0.0708
     41 C          63.0849   83.4063   10.7003 C.3     1  UNL1        0.4184
     42 F          63.0063   82.1094    9.9507 F       1  UNL1       -0.1659
     43 F          61.7708   83.1056   11.3581 F       1  UNL1       -0.1659
     44 F          64.3989   83.7069   10.0424 F       1  UNL1       -0.1659
@<TRIPOS>BOND
     1    34    33    1
     2    34    32    1
     3    32     1    1
     4     1     2   ar
     5     2     3   ar
     6     3     6    1
     7     6     7   ar
     8     7     8   ar
     9     8     9   ar
    10     9    10   ar
    11    10    11   ar
    12    11    15    1
    13    15    16   ar
    14    16    17   ar
    15    17    18   ar
    16    18    19   ar
    17    19    21    1
    18    21    22    1
    19    22    23    1
    20    23    24    1
    21    24    25    1
    22    25    26    1
    23    19    20   ar
    24    11    12   ar
    25    12    13   ar
    26    13    14   ar
    27     3     4   ar
    28     4     5   ar
    29     5    27    1
    30    27    28   am
    31    27    29    2
    32    34    35    1
    33    35    36   ar
    34    36    37   ar
    35    37    38   ar
    36    38    39   ar
    37    39    40   ar
    38    40    41    1
    39    41    42    1
    40    41    43    1
    41    41    44    1
    42     5     1   ar
    43    40    35   ar
    44    14     6   ar
    45    14     9   ar
    46    20    15   ar
    47    26    21    1
    48    28    30    1
    49    28    31    1
@<TRIPOS>MOLECULE
*****
 44 49 0 0 0
SMALL
GASTEIGER

@<TRIPOS>ATOM
      1 C          60.6753   88.6679    9.8740 C.ar    1  UNL1        0.1512
      2 C          59.9311   89.7392    9.1336 C.ar    1  UNL1        0.0619
      3 C          59.6127   89.2199    7.7629 C.ar    1  UNL1        0.0987
      4 S          60.1601   87.8274    7.6561 S.2     1  UNL1       -0.0618
      5 C          60.8168   87.4862    8.9609 C.ar    1  UNL1        0.1178
      6 N          58.8762   89.9625    6.6877 N.ar    1  UNL1       -0.2823
      7 C          57.3861   90.0641    6.5486 C.ar    1  UNL1        0.1831
      8 N          57.0895   90.8983    5.3378 N.ar    1  UNL1       -0.2236
      9 C          58.3962   91.3123    4.7286 C.ar    1  UNL1        0.0991
     10 C          58.7232   92.1412    3.5220 C.ar    1  UNL1        0.0206
     11 C          60.1545   92.3917    3.1497 C.ar    1  UNL1        0.0017
     12 C          61.2587   91.8133    3.9840 C.ar    1  UNL1        0.0016
     13 C          60.9317   90.9845    5.1906 C.ar    1  UNL1        0.0191
     14 C          59.5004   90.7339    5.5629 C.ar    1  UNL1        0.0835
     15 C          60.4816   93.2206    1.9430 C.ar    1  UNL1        0.0044
     16 C          59.4852   93.3495    0.8292 C.ar    1  UNL1        0.0208
     17 C          59.8122   94.1784   -0.3774 C.ar    1  UNL1        0.1003
     18 N          61.1357   94.8784   -0.4703 N.ar    1  UNL1       -0.2292
     19 C          62.1321   94.7494    0.6435 C.ar    1  UNL1        0.1318
     20 C          61.8050   93.9205    1.8502 C.ar    1  UNL1        0.0343
     21 N          63.4555   95.4494    0.5507 N.pl3   1  UNL1       -0.2881
     22 C          64.0380   95.7772   -0.7921 C.3     1  UNL1        0.1242
     23 C          65.3614   96.4771   -0.8849 C.3     1  UNL1        0.1636
     24 O          66.1024   96.8493    0.3651 O.3     1  UNL1       -0.3501
     25 C          65.5198   96.5214    1.7080 C.3     1  UNL1        0.1636
     26 C          64.1964   95.8215    1.8008 C.3     1  UNL1        0.1242
     27 C          61.4959   86.1908    9.2940 C.2     1  UNL1        0.2518
     28 N          62.4421   85.5659    8.3121 N.am    1  UNL1       -0.3248
     29 O          61.2287   85.5204   10.6090 O.2     1  UNL1       -0.2697
     30 H          62.6175   86.0059    7.4491 H       1  UNL1        0.1453
     31 H          62.8878   84.7157    8.5308 H       1  UNL1        0.1453
     32 O          61.1880   88.7616   11.2805 O.3     1  UNL1       -0.4740
     33 C          63.5154   89.7583   10.6976 C.3     1  UNL1        0.0523
     34 C          62.6631   88.8528   11.5366 C.3     1  UNL1        0.1882
     35 C          63.2860   88.0387   12.6316 C.ar    1  UNL1        0.0211
     36 C          63.3852   86.5483   12.4945 C.ar    1  UNL1       -0.0009
     37 C          64.0081   85.7341   13.5895 C.ar    1  UNL1       -0.0002
     38 C          64.5318   86.4104   14.8217 C.ar    1  UNL1       -0.0001
     39 C          64.4326   87.9007   14.9589 C.ar    1  UNL1        0.0036
     40 C          63.8097   88.7150   13.8639 C.ar    1  UNL1        0.0708
     41 C          63.7105   90.2053   14.0011 C.3     1  UNL1        0.4184
     42 F          63.6112   91.6957   14.1383 F       1  UNL1       -0.1659
     43 F          62.2368   90.0840   14.2532 F       1  UNL1       -0.1659
     44 F          65.1841   90.3267   13.7490 F       1  UNL1       -0.1659
@<TRIPOS>BOND
     1    34    33    1
     2    34    32    1
     3    32     1    1
     4     1     2   ar
     5     2     3   ar
     6     3     6    1
     7     6     7   ar
     8     7     8   ar
     9     8     9   ar
    10     9    10   ar
    11    10    11   ar
    12    11    15    1
    13    15    16   ar
    14    16    17   ar
    15    17    18   ar
    16    18    19   ar
    17    19    21    1
    18    21    22    1
    19    22    23    1
    20    23    24    1
    21    24    25    1
    22    25    26    1
    23    19    20   ar
    24    11    12   ar
    25    12    13   ar
    26    13    14   ar
    27     3     4   ar
    28     4     5   ar
    29     5    27    1
    30    27    28   am
    31    27    29    2
    32    34    35    1
    33    35    36   ar
    34    36    37   ar
    35    37    38   ar
    36    38    39   ar
    37    39    40   ar
    38    40    41    1
    39    41    42    1
    40    41    43    1
    41    41    44    1
    42     5     1   ar
    43    40    35   ar
    44    14     6   ar
    45    14     9   ar
    46    20    15   ar
    47    26    21    1
    48    28    30    1
    49    28    31    1
@<TRIPOS>MOLECULE
*****
 44 49 0 0 0
SMALL
GASTEIGER

@<TRIPOS>ATOM
      1 C          60.5491   87.6241    9.6161 C.ar    1  UNL1        0.1512
      2 C          59.7264   87.7858    8.3724 C.ar    1  UNL1        0.0619
      3 C          59.6647   89.2481    8.0441 C.ar    1  UNL1        0.0987
      4 S          60.4493   89.9903    9.0850 S.2     1  UNL1       -0.0618
      5 C          60.9960   88.9867   10.0565 C.ar    1  UNL1        0.1178
      6 N          58.9447   89.8607    6.8795 N.ar    1  UNL1       -0.2823
      7 C          57.4624   89.8422    6.6505 C.ar    1  UNL1        0.1831
      8 N          57.1823   90.5695    5.3688 N.ar    1  UNL1       -0.2236
      9 C          58.4915   91.0375    4.8057 C.ar    1  UNL1        0.0991
     10 C          58.8325   91.8059    3.5635 C.ar    1  UNL1        0.0206
     11 C          60.2627   92.1363    3.2549 C.ar    1  UNL1        0.0017
     12 C          61.3519   91.6982    4.1885 C.ar    1  UNL1        0.0016
     13 C          61.0110   90.9298    5.4308 C.ar    1  UNL1        0.0191
     14 C          59.5807   90.5995    5.7394 C.ar    1  UNL1        0.0835
     15 C          60.6037   92.9047    2.0126 C.ar    1  UNL1        0.0044
     16 C          59.6740   92.8789    0.8358 C.ar    1  UNL1        0.0208
     17 C          60.0150   93.6472   -0.4065 C.ar    1  UNL1        0.1003
     18 N          61.2858   94.4416   -0.4720 N.ar    1  UNL1       -0.2292
     19 C          62.2155   94.4675    0.7048 C.ar    1  UNL1        0.1318
     20 C          61.8745   93.6990    1.9471 C.ar    1  UNL1        0.0343
     21 N          63.4863   95.2617    0.6394 N.pl3   1  UNL1       -0.2881
     22 C          64.2514   95.3478   -0.6478 C.3     1  UNL1        0.1242
     23 C          65.5222   96.1421   -0.7133 C.3     1  UNL1        0.1636
     24 O          66.0278   96.8503    0.5085 O.3     1  UNL1       -0.3501
     25 C          65.2625   96.7642    1.7958 C.3     1  UNL1        0.1636
     26 C          63.9918   95.9700    1.8612 C.3     1  UNL1        0.1242
     27 C          61.8411   89.2919   11.2577 C.2     1  UNL1        0.2518
     28 N          61.2085   89.3918   12.6141 N.am    1  UNL1       -0.3248
     29 O          63.3189   89.4973   11.1023 O.2     1  UNL1       -0.2697
     30 H          60.2386   89.2570   12.7160 H       1  UNL1        0.1453
     31 H          61.7632   89.5921   13.4024 H       1  UNL1        0.1453
     32 O          60.8689   86.3277   10.2994 O.3     1  UNL1       -0.4740
     33 C          62.9741   85.5482    8.9916 C.3     1  UNL1        0.0523
     34 C          62.2743   85.8035   10.2935 C.3     1  UNL1        0.1882
     35 C          62.9799   85.5347   11.5896 C.ar    1  UNL1        0.0211
     36 C          63.1121   86.6246   12.6117 C.ar    1  UNL1       -0.0009
     37 C          63.8177   86.3557   13.9078 C.ar    1  UNL1       -0.0002
     38 C          64.3911   84.9970   14.1818 C.ar    1  UNL1       -0.0001
     39 C          64.2590   83.9072   13.1598 C.ar    1  UNL1        0.0036
     40 C          63.5533   84.1760   11.8636 C.ar    1  UNL1        0.0708
     41 C          63.4212   83.0862   10.8415 C.3     1  UNL1        0.4184
     42 F          63.2890   81.9962    9.8194 F       1  UNL1       -0.1659
     43 F          62.1670   82.6094   11.5120 F       1  UNL1       -0.1659
     44 F          64.6754   83.5628   10.1710 F       1  UNL1       -0.1659
@<TRIPOS>BOND
     1    34    33    1
     2    34    32    1
     3    32     1    1
     4     1     2   ar
     5     2     3   ar
     6     3     6    1
     7     6     7   ar
     8     7     8   ar
     9     8     9   ar
    10     9    10   ar
    11    10    11   ar
    12    11    15    1
    13    15    16   ar
    14    16    17   ar
    15    17    18   ar
    16    18    19   ar
    17    19    21    1
    18    21    22    1
    19    22    23    1
    20    23    24    1
    21    24    25    1
    22    25    26    1
    23    19    20   ar
    24    11    12   ar
    25    12    13   ar
    26    13    14   ar
    27     3     4   ar
    28     4     5   ar
    29     5    27    1
    30    27    28   am
    31    27    29    2
    32    34    35    1
    33    35    36   ar
    34    36    37   ar
    35    37    38   ar
    36    38    39   ar
    37    39    40   ar
    38    40    41    1
    39    41    42    1
    40    41    43    1
    41    41    44    1
    42     5     1   ar
    43    40    35   ar
    44    14     6   ar
    45    14     9   ar
    46    20    15   ar
    47    26    21    1
    48    28    30    1
    49    28    31    1
