@<TRIPOS>MOLECULE
*****
 65 72 0 0 0
SMALL
GASTEIGER

@<TRIPOS>ATOM
      1 N          58.2517   95.9929   -3.9408 N.3     1  UNL1       -0.1862
      2 C          59.6930   96.2167   -4.2905 C.3     1  UNL1        0.1775
      3 C          60.7619   95.9511   -3.2721 C.2     1  UNL1        0.2452
      4 O          62.2033   96.1749   -3.6219 O.2     1  UNL1       -0.2732
      5 N          60.3893   95.4618   -1.9040 N.am    1  UNL1       -0.2541
      6 C          58.9480   95.2380   -1.5543 C.3     1  UNL1        0.1908
      7 C          58.5753   94.7486   -0.1862 C.3     1  UNL1        0.1359
      8 N          59.6442   94.4831    0.8322 N.am    1  UNL1       -0.2705
      9 C          61.0856   94.7069    0.4824 C.2     1  UNL1        0.2445
     10 O          62.1544   94.4413    1.5008 O.2     1  UNL1       -0.2731
     11 C          61.4581   95.1962   -0.8856 C.3     1  UNL1        0.1577
     12 N          57.8791   95.5036   -2.5727 N.am    1  UNL1       -0.1863
     13 C          56.4377   95.2798   -2.2229 C.2     1  UNL1        0.3191
     14 O          56.0652   94.7904   -0.8548 O.2     1  UNL1       -0.2512
     15 N          55.3689   95.5453   -3.2413 N.am    1  UNL1       -0.2836
     16 H          55.6134   95.8665   -4.1392 H       1  UNL1        0.1513
     17 C          57.1829   96.2585   -4.9592 C.3     1  UNL1        0.1188
     18 C          56.9727   93.9399   -6.1125 C.2     1  UNL1       -0.0034
     19 C          57.1142   95.4302   -6.2078 C.2     1  UNL1       -0.0071
     20 C          59.2716   93.9937    2.2003 C.3     1  UNL1        0.1217
     21 C          60.1055   92.9449    2.8746 C.ar    1  UNL1        0.0135
     22 C          61.5280   92.7302    2.4498 C.ar    1  UNL1       -0.0012
     23 C          62.3619   91.6814    3.1240 C.ar    1  UNL1       -0.0002
     24 C          61.7734   90.8473    4.2230 C.ar    1  UNL1        0.0016
     25 C          60.3509   91.0620    4.6477 C.ar    1  UNL1        0.0214
     26 C          59.5043   90.3977    5.6927 C.ar    1  UNL1        0.0722
     27 C          58.1472   91.0360    5.6644 C.ar    1  UNL1        0.0805
     28 N          58.1550   92.0947    4.6019 N.ar    1  UNL1       -0.3241
     29 C          57.0031   92.9816    4.2325 C.3     1  UNL1        0.1305
     30 C          59.5169   92.1107    3.9735 C.ar    1  UNL1        0.0577
     31 C          59.9386   89.2897    6.6059 C.2     1  UNL1        0.2510
     32 O          59.7923   87.8608    6.1736 O.2     1  UNL1       -0.2698
     33 N          60.5193   89.6106    7.9512 N.am    1  UNL1       -0.2791
     34 H          60.6153   90.5484    8.2348 H       1  UNL1        0.1552
     35 C          60.9536   88.5026    8.8643 C.ar    1  UNL1        0.0701
     36 C          60.5140   87.0938    8.5959 C.ar    1  UNL1        0.0191
     37 C          60.9483   85.9858    9.5089 C.ar    1  UNL1        0.0356
     38 C          61.8222   86.2866   10.6904 C.ar    1  UNL1        0.1319
     39 N          62.2618   87.6954   10.9588 N.ar    1  UNL1       -0.2279
     40 C          61.8275   88.8034   10.0457 C.ar    1  UNL1        0.1149
     41 N          62.2565   85.1787   11.6035 N.pl3   1  UNL1       -0.2904
     42 C          62.4753   83.7989   11.0573 C.3     1  UNL1        0.1095
     43 C          62.9097   82.6909   11.9703 C.3     1  UNL1        0.0938
     44 N          63.1252   82.9627   13.4297 N.3     1  UNL1       -0.2711
     45 C          62.9065   84.3424   13.9760 C.3     1  UNL1        0.0938
     46 C          62.4721   85.4505   13.0628 C.3     1  UNL1        0.1095
     47 C          63.5596   81.8547   14.3428 C.3     1  UNL1        0.0577
     48 C          63.1396   80.4426   14.0610 C.3     1  UNL1        0.0173
     49 C          64.4138   82.1589   15.5376 C.3     1  UNL1        0.0173
     50 C          62.8995   95.4200   -1.2353 C.3     1  UNL1        0.0556
     51 C          63.5443   94.6044   -2.3166 C.ar    1  UNL1       -0.0198
     52 C          64.5398   95.2389   -3.2420 C.ar    1  UNL1       -0.0011
     53 C          65.1846   94.4233   -4.3232 C.ar    1  UNL1        0.0363
     54 C          64.8339   92.9733   -4.4791 C.ar    1  UNL1        0.1337
     55 O          65.4787   92.1577   -5.5603 O.3     1  UNL1       -0.5055
     56 C          63.8384   92.3387   -3.5536 C.ar    1  UNL1        0.0363
     57 C          63.1936   93.1543   -2.4724 C.ar    1  UNL1       -0.0011
     58 H          66.1006   92.5540   -6.1384 H       1  UNL1        0.2922
     59 C          53.9275   95.3215   -2.8916 C.3     1  UNL1        0.1177
     60 C          52.8476   95.8324   -3.7987 C.ar    1  UNL1       -0.0025
     61 C          53.1575   96.1426   -5.2332 C.ar    1  UNL1       -0.0026
     62 C          52.0776   96.6535   -6.1402 C.ar    1  UNL1       -0.0003
     63 C          50.6878   96.8542   -5.6129 C.ar    1  UNL1       -0.0000
     64 C          50.3779   96.5441   -4.1783 C.ar    1  UNL1       -0.0003
     65 C          51.4578   96.0332   -3.2712 C.ar    1  UNL1       -0.0026
@<TRIPOS>BOND
     1    18    19    2
     2    19    17    1
     3    17     1    1
     4     1     2    1
     5     2     3    1
     6     3     4    2
     7     3     5   am
     8     5     6    1
     9     6     7    1
    10     7     8    1
    11     8    20    1
    12    20    21    1
    13    21    22   ar
    14    22    23   ar
    15    23    24   ar
    16    24    25   ar
    17    25    26   ar
    18    26    31    1
    19    31    32    2
    20    31    33   am
    21    33    35    1
    22    35    36   ar
    23    36    37   ar
    24    37    38   ar
    25    38    41    1
    26    41    42    1
    27    42    43    1
    28    43    44    1
    29    44    47    1
    30    47    48    1
    31    47    49    1
    32    44    45    1
    33    45    46    1
    34    38    39   ar
    35    39    40   ar
    36    26    27   ar
    37    27    28   ar
    38    28    29    1
    39    28    30   ar
    40     8     9   am
    41     9    10    2
    42     9    11    1
    43    11    50    1
    44    50    51    1
    45    51    52   ar
    46    52    53   ar
    47    53    54   ar
    48    54    55    1
    49    54    56   ar
    50    56    57   ar
    51     6    12    1
    52    12    13   am
    53    13    14    2
    54    13    15   am
    55    15    59    1
    56    59    60    1
    57    60    61   ar
    58    61    62   ar
    59    62    63   ar
    60    63    64   ar
    61    64    65   ar
    62    12     1    1
    63    65    60   ar
    64    11     5    1
    65    57    51   ar
    66    30    21   ar
    67    30    25   ar
    68    40    35   ar
    69    46    41    1
    70    33    34    1
    71    55    58    1
    72    15    16    1
@<TRIPOS>MOLECULE
*****
 65 72 0 0 0
SMALL
GASTEIGER

@<TRIPOS>ATOM
      1 N          65.7607   89.9200   13.9695 N.3     1  UNL1       -0.1862
      2 C          66.1878   88.7455   14.7990 C.3     1  UNL1        0.1775
      3 C          65.3796   87.4820   14.7823 C.2     1  UNL1        0.2452
      4 O          65.8067   86.3074   15.6118 O.2     1  UNL1       -0.2732
      5 N          64.1443   87.3930   13.9361 N.am    1  UNL1       -0.2541
      6 C          63.7172   88.5675   13.1066 C.3     1  UNL1        0.1908
      7 C          62.4818   88.4785   12.2604 C.3     1  UNL1        0.1359
      8 N          61.6736   87.2150   12.2437 N.am    1  UNL1       -0.2705
      9 C          62.1007   86.0404   13.0732 C.2     1  UNL1        0.2445
     10 O          61.2925   84.7769   13.0565 O.2     1  UNL1       -0.2731
     11 C          63.3360   86.1294   13.9194 C.3     1  UNL1        0.1577
     12 N          64.5254   89.8310   13.1233 N.am    1  UNL1       -0.1863
     13 C          64.0983   91.0055   12.2938 C.2     1  UNL1        0.3191
     14 O          62.8630   90.9165   11.4476 O.2     1  UNL1       -0.2512
     15 N          64.9065   92.2691   12.3105 N.am    1  UNL1       -0.2836
     16 H          65.7173   92.3275   12.8658 H       1  UNL1        0.1513
     17 C          66.5690   91.1835   13.9862 C.3     1  UNL1        0.1188
     18 C          68.3946   92.6076   15.1648 C.2     1  UNL1       -0.0034
     19 C          67.2879   91.5975   15.2358 C.2     1  UNL1       -0.0071
     20 C          60.4383   87.1260   11.3975 C.3     1  UNL1        0.1217
     21 C          60.5470   87.1880    9.9027 C.ar    1  UNL1        0.0135
     22 C          60.9949   85.9812    9.1326 C.ar    1  UNL1       -0.0012
     23 C          61.1037   86.0431    7.6379 C.ar    1  UNL1       -0.0002
     24 C          60.7645   87.3119    6.9132 C.ar    1  UNL1        0.0016
     25 C          60.3167   88.5187    7.6833 C.ar    1  UNL1        0.0214
     26 C          59.9181   89.8971    7.2463 C.ar    1  UNL1        0.0722
     27 C          59.5630   90.6871    8.4710 C.ar    1  UNL1        0.0805
     28 N          59.7421   89.7969    9.6648 N.ar    1  UNL1       -0.3241
     29 C          59.4983   90.1796   11.0945 C.3     1  UNL1        0.1305
     30 C          60.2079   88.4567    9.1780 C.ar    1  UNL1        0.0577
     31 C          59.8811   90.3978    5.8327 C.2     1  UNL1        0.2510
     32 O          58.7009   90.0913    4.9592 O.2     1  UNL1       -0.2698
     33 N          61.0244   91.2048    5.2927 N.am    1  UNL1       -0.2791
     34 H          61.7990   91.4060    5.8661 H       1  UNL1        0.1552
     35 C          60.9874   91.7055    3.8793 C.ar    1  UNL1        0.0701
     36 C          62.1800   91.5234    2.9878 C.ar    1  UNL1        0.0191
     37 C          62.1432   92.0240    1.5743 C.ar    1  UNL1        0.0356
     38 C          60.9138   92.7066    1.0522 C.ar    1  UNL1        0.1319
     39 N          59.7212   92.8886    1.9437 N.ar    1  UNL1       -0.2279
     40 C          59.7580   92.3881    3.3572 C.ar    1  UNL1        0.1149
     41 N          60.8769   93.2072   -0.3612 N.pl3   1  UNL1       -0.2904
     42 C          59.6429   93.0166   -1.1925 C.3     1  UNL1        0.1095
     43 C          59.6058   93.5171   -2.6060 C.3     1  UNL1        0.0938
     44 N          60.8029   94.2085   -3.1883 N.3     1  UNL1       -0.2711
     45 C          62.0369   94.3992   -2.3572 C.3     1  UNL1        0.0938
     46 C          62.0739   93.8986   -0.9436 C.3     1  UNL1        0.1095
     47 C          60.7660   94.7091   -4.6018 C.3     1  UNL1        0.0577
     48 C          62.0169   94.7114   -5.4295 C.3     1  UNL1        0.0173
     49 C          59.4781   95.2074   -5.1876 C.3     1  UNL1        0.0173
     50 C          63.7631   84.9549   14.7489 C.3     1  UNL1        0.0556
     51 C          63.4397   83.5612   14.2983 C.ar    1  UNL1       -0.0198
     52 C          62.2752   82.8303   14.8981 C.ar    1  UNL1       -0.0011
     53 C          61.9518   81.4367   14.4475 C.ar    1  UNL1        0.0363
     54 C          62.7928   80.7739   13.3971 C.ar    1  UNL1        0.1337
     55 O          62.4694   79.3802   12.9465 O.3     1  UNL1       -0.5055
     56 C          63.9573   81.5048   12.7972 C.ar    1  UNL1        0.0363
     57 C          64.2808   82.8985   13.2478 C.ar    1  UNL1       -0.0011
     58 H          61.7420   78.9236   13.3212 H       1  UNL1        0.2922
     59 C          64.4794   93.4436   11.4810 C.3     1  UNL1        0.1177
     60 C          65.4753   94.1457   10.6061 C.ar    1  UNL1       -0.0025
     61 C          65.3485   95.6197   10.3588 C.ar    1  UNL1       -0.0026
     62 C          66.3444   96.3217    9.4839 C.ar    1  UNL1       -0.0003
     63 C          67.4669   95.5498    8.8563 C.ar    1  UNL1       -0.0000
     64 C          67.5937   94.0757    9.1036 C.ar    1  UNL1       -0.0003
     65 C          66.5979   93.3736    9.9785 C.ar    1  UNL1       -0.0026
@<TRIPOS>BOND
     1    18    19    2
     2    19    17    1
     3    17     1    1
     4     1     2    1
     5     2     3    1
     6     3     4    2
     7     3     5   am
     8     5     6    1
     9     6     7    1
    10     7     8    1
    11     8    20    1
    12    20    21    1
    13    21    22   ar
    14    22    23   ar
    15    23    24   ar
    16    24    25   ar
    17    25    26   ar
    18    26    31    1
    19    31    32    2
    20    31    33   am
    21    33    35    1
    22    35    36   ar
    23    36    37   ar
    24    37    38   ar
    25    38    41    1
    26    41    42    1
    27    42    43    1
    28    43    44    1
    29    44    47    1
    30    47    48    1
    31    47    49    1
    32    44    45    1
    33    45    46    1
    34    38    39   ar
    35    39    40   ar
    36    26    27   ar
    37    27    28   ar
    38    28    29    1
    39    28    30   ar
    40     8     9   am
    41     9    10    2
    42     9    11    1
    43    11    50    1
    44    50    51    1
    45    51    52   ar
    46    52    53   ar
    47    53    54   ar
    48    54    55    1
    49    54    56   ar
    50    56    57   ar
    51     6    12    1
    52    12    13   am
    53    13    14    2
    54    13    15   am
    55    15    59    1
    56    59    60    1
    57    60    61   ar
    58    61    62   ar
    59    62    63   ar
    60    63    64   ar
    61    64    65   ar
    62    12     1    1
    63    65    60   ar
    64    11     5    1
    65    57    51   ar
    66    30    21   ar
    67    30    25   ar
    68    40    35   ar
    69    46    41    1
    70    33    34    1
    71    55    58    1
    72    15    16    1
