@<TRIPOS>MOLECULE
*****
 31 33 0 0 0
SMALL
GASTEIGER

@<TRIPOS>ATOM
      1 C          64.1473   91.1439   14.2273 C.ar    1  UNL1        0.1329
      2 N          64.7702   91.5705   15.5234 N.ar    1  UNL1       -0.1993
      3 C          65.8540   92.6075   15.5292 C.ar    1  UNL1        0.2148
      4 N          66.4769   93.0341   16.8255 N.pl3   1  UNL1       -0.3274
      5 N          66.3150   93.2178   14.2389 N.ar    1  UNL1       -0.2139
      6 C          65.6922   92.7912   12.9427 C.ar    1  UNL1        0.0870
      7 C          66.1532   93.4015   11.6524 C.ar    1  UNL1        0.0193
      8 C          65.5304   92.9748   10.3563 C.ar    1  UNL1        0.0017
      9 C          64.4465   91.9379   10.3504 C.ar    1  UNL1        0.0047
     10 C          63.9855   91.3276   11.6407 C.ar    1  UNL1        0.0575
     11 C          64.6083   91.7542   12.9369 C.ar    1  UNL1        0.0535
     12 H          66.1743   92.6336   17.6724 H       1  UNL1        0.1452
     13 H          67.1882   93.7147   16.8293 H       1  UNL1        0.1452
     14 C          62.9017   90.2906   11.6349 C.2     1  UNL1        0.2462
     15 O          63.2302   88.8606   11.9464 O.2     1  UNL1       -0.2701
     16 N          61.4893   90.6837   11.3177 N.am    1  UNL1       -0.2987
     17 H          61.2737   91.6223   11.1133 H       1  UNL1        0.1500
     18 C          60.4055   89.6468   11.3119 C.3     1  UNL1        0.0944
     19 C          59.4061   89.6002   12.4295 C.3     1  UNL1        0.0262
     20 C          60.3210   88.6565   10.1885 C.ar    1  UNL1       -0.0045
     21 C          60.7009   87.2241   10.4211 C.ar    1  UNL1       -0.0027
     22 C          60.6164   86.2338    9.2977 C.ar    1  UNL1       -0.0003
     23 C          60.1520   86.6758    7.9415 C.ar    1  UNL1       -0.0000
     24 C          59.7721   88.1082    7.7089 C.ar    1  UNL1       -0.0003
     25 C          59.8566   89.0985    8.8324 C.ar    1  UNL1       -0.0027
     26 N          63.0635   90.1070   14.2215 N.pl3   1  UNL1       -0.3180
     27 H          62.5500   89.9363   13.3990 H       1  UNL1        0.1482
     28 C          62.7620   89.3301   15.4687 C.3     1  UNL1        0.0882
     29 C          63.6058   88.1459   15.8370 C.3     1  UNL1        0.0212
     30 C          64.7710   85.9853   14.9859 C.3     1  UNL1        0.0001
     31 C          64.3806   87.4186   14.7783 C.3     1  UNL1        0.0017
@<TRIPOS>BOND
     1    30    31    1
     2    31    29    1
     3    29    28    1
     4    28    26    1
     5    26     1    1
     6     1     2   ar
     7     2     3   ar
     8     3     4    1
     9     3     5   ar
    10     5     6   ar
    11     6     7   ar
    12     7     8   ar
    13     8     9   ar
    14     9    10   ar
    15    10    14    1
    16    14    15    2
    17    14    16   am
    18    16    18    1
    19    18    19    1
    20    18    20    1
    21    20    21   ar
    22    21    22   ar
    23    22    23   ar
    24    23    24   ar
    25    24    25   ar
    26    10    11   ar
    27    11     1   ar
    28    11     6   ar
    29    25    20   ar
    30    26    27    1
    31     4    12    1
    32     4    13    1
    33    16    17    1
@<TRIPOS>MOLECULE
*****
 31 33 0 0 0
SMALL
GASTEIGER

@<TRIPOS>ATOM
      1 C          64.2301   90.7032   14.2730 C.ar    1  UNL1        0.1329
      2 N          64.9900   91.2348   15.4519 N.ar    1  UNL1       -0.1993
      3 C          65.8953   92.4196   15.2883 C.ar    1  UNL1        0.2148
      4 N          66.6552   92.9512   16.4673 N.pl3   1  UNL1       -0.3274
      5 N          66.0407   93.0727   13.9459 N.ar    1  UNL1       -0.2139
      6 C          65.2808   92.5411   12.7669 C.ar    1  UNL1        0.0870
      7 C          65.4262   93.1942   11.4244 C.ar    1  UNL1        0.0193
      8 C          64.6663   92.6626   10.2455 C.ar    1  UNL1        0.0017
      9 C          63.7610   91.4778   10.4091 C.ar    1  UNL1        0.0047
     10 C          63.6156   90.8247   11.7515 C.ar    1  UNL1        0.0575
     11 C          64.3755   91.3563   12.9304 C.ar    1  UNL1        0.0535
     12 H          66.5598   92.5225   17.3485 H       1  UNL1        0.1452
     13 H          67.2494   93.7288   16.3600 H       1  UNL1        0.1452
     14 C          62.7103   89.6399   11.9151 C.2     1  UNL1        0.2462
     15 O          61.4547   89.7618   12.7265 O.2     1  UNL1       -0.2701
     16 N          63.0606   88.3332   11.2671 N.am    1  UNL1       -0.2987
     17 H          63.8847   88.2532   10.7346 H       1  UNL1        0.1500
     18 C          62.1553   87.1484   11.4307 C.3     1  UNL1        0.0944
     19 C          60.7015   87.2612   11.0787 C.3     1  UNL1        0.0262
     20 C          62.7038   85.8510   11.9462 C.ar    1  UNL1       -0.0045
     21 C          63.4814   85.8221   13.2286 C.ar    1  UNL1       -0.0027
     22 C          64.0298   84.5246   13.7441 C.ar    1  UNL1       -0.0003
     23 C          63.8006   83.2560   12.9771 C.ar    1  UNL1       -0.0000
     24 C          63.0230   83.2849   11.6948 C.ar    1  UNL1       -0.0003
     25 C          62.4746   84.5824   11.1793 C.ar    1  UNL1       -0.0027
     26 N          63.3248   89.5184   14.4365 N.pl3   1  UNL1       -0.3180
     27 H          62.5317   89.4218   13.8613 H       1  UNL1        0.1482
     28 C          63.6279   88.4808   15.4764 C.3     1  UNL1        0.0882
     29 C          63.0737   88.6243   16.8629 C.3     1  UNL1        0.0212
     30 C          62.8977   86.0401   17.0658 C.3     1  UNL1        0.0001
     31 C          62.7688   87.4030   17.6789 C.3     1  UNL1        0.0017
@<TRIPOS>BOND
     1    30    31    1
     2    31    29    1
     3    29    28    1
     4    28    26    1
     5    26     1    1
     6     1     2   ar
     7     2     3   ar
     8     3     4    1
     9     3     5   ar
    10     5     6   ar
    11     6     7   ar
    12     7     8   ar
    13     8     9   ar
    14     9    10   ar
    15    10    14    1
    16    14    15    2
    17    14    16   am
    18    16    18    1
    19    18    19    1
    20    18    20    1
    21    20    21   ar
    22    21    22   ar
    23    22    23   ar
    24    23    24   ar
    25    24    25   ar
    26    10    11   ar
    27    11     1   ar
    28    11     6   ar
    29    25    20   ar
    30    26    27    1
    31     4    12    1
    32     4    13    1
    33    16    17    1
@<TRIPOS>MOLECULE
*****
 31 33 0 0 0
SMALL
GASTEIGER

@<TRIPOS>ATOM
      1 C          63.2993   86.9795   12.9873 C.ar    1  UNL1        0.1329
      2 N          63.3802   85.5040   12.7301 N.ar    1  UNL1       -0.1993
      3 C          62.8873   84.9411   11.4301 C.ar    1  UNL1        0.2148
      4 N          62.9682   83.4655   11.1729 N.pl3   1  UNL1       -0.3274
      5 N          62.3134   85.8537   10.3871 N.ar    1  UNL1       -0.2139
      6 C          62.2325   87.3294   10.6443 C.ar    1  UNL1        0.0870
      7 C          61.6587   88.2420    9.6013 C.ar    1  UNL1        0.0193
      8 C          61.5778   89.7176    9.8585 C.ar    1  UNL1        0.0017
      9 C          62.0707   90.2805   11.1585 C.ar    1  UNL1        0.0047
     10 C          62.6446   89.3678   12.2015 C.ar    1  UNL1        0.0575
     11 C          62.7255   87.8923   11.9443 C.ar    1  UNL1        0.0535
     12 H          63.3448   82.8664   11.8575 H       1  UNL1        0.1452
     13 H          62.6447   83.0960   10.3197 H       1  UNL1        0.1452
     14 C          63.1375   89.9307   13.5015 C.2     1  UNL1        0.2462
     15 O          62.3151   89.7747   14.7462 O.2     1  UNL1       -0.2701
     16 N          64.4528   90.6496   13.5569 N.am    1  UNL1       -0.2987
     17 H          64.9926   90.7520   12.7399 H       1  UNL1        0.1500
     18 C          64.9458   91.2125   14.8569 C.3     1  UNL1        0.0944
     19 C          64.0638   91.1818   16.0700 C.3     1  UNL1        0.0262
     20 C          66.3206   91.8060   14.9440 C.ar    1  UNL1       -0.0045
     21 C          67.3235   91.5372   13.8615 C.ar    1  UNL1       -0.0027
     22 C          68.6983   92.1307   13.9486 C.ar    1  UNL1       -0.0003
     23 C          69.0702   92.9932   15.1182 C.ar    1  UNL1       -0.0000
     24 C          68.0672   93.2620   16.2007 C.ar    1  UNL1       -0.0003
     25 C          66.6924   92.6684   16.1136 C.ar    1  UNL1       -0.0027
     26 N          63.7923   87.5424   14.2873 N.pl3   1  UNL1       -0.3180
     27 H          63.6607   88.4964   14.4921 H       1  UNL1        0.1482
     28 C          64.4856   86.6519   15.2753 C.3     1  UNL1        0.0882
     29 C          63.6895   85.6869   16.1029 C.3     1  UNL1        0.0212
     30 C          62.8655   87.6078   17.6461 C.3     1  UNL1        0.0001
     31 C          62.7423   86.1984   17.1476 C.3     1  UNL1        0.0017
@<TRIPOS>BOND
     1    30    31    1
     2    31    29    1
     3    29    28    1
     4    28    26    1
     5    26     1    1
     6     1     2   ar
     7     2     3   ar
     8     3     4    1
     9     3     5   ar
    10     5     6   ar
    11     6     7   ar
    12     7     8   ar
    13     8     9   ar
    14     9    10   ar
    15    10    14    1
    16    14    15    2
    17    14    16   am
    18    16    18    1
    19    18    19    1
    20    18    20    1
    21    20    21   ar
    22    21    22   ar
    23    22    23   ar
    24    23    24   ar
    25    24    25   ar
    26    10    11   ar
    27    11     1   ar
    28    11     6   ar
    29    25    20   ar
    30    26    27    1
    31     4    12    1
    32     4    13    1
    33    16    17    1
@<TRIPOS>MOLECULE
*****
 31 33 0 0 0
SMALL
GASTEIGER

@<TRIPOS>ATOM
      1 C          63.1325   87.6676   12.3584 C.ar    1  UNL1        0.1329
      2 N          63.2075   86.2337   12.7925 N.ar    1  UNL1       -0.1993
      3 C          62.3954   85.1916   12.0823 C.ar    1  UNL1        0.2148
      4 N          62.4705   83.7577   12.5164 N.pl3   1  UNL1       -0.3274
      5 N          61.5082   85.5833   10.9380 N.ar    1  UNL1       -0.2139
      6 C          61.4330   87.0172   10.5039 C.ar    1  UNL1        0.0870
      7 C          60.5458   87.4090    9.3597 C.ar    1  UNL1        0.0193
      8 C          60.4707   88.8428    8.9257 C.ar    1  UNL1        0.0017
      9 C          61.2829   89.8849    9.6359 C.ar    1  UNL1        0.0047
     10 C          62.1701   89.4932   10.7801 C.ar    1  UNL1        0.0575
     11 C          62.2452   88.0594   11.2141 C.ar    1  UNL1        0.0535
     12 H          63.0528   83.5006   13.2674 H       1  UNL1        0.1452
     13 H          61.9375   83.0737   12.0502 H       1  UNL1        0.1452
     14 C          62.9823   90.5353   11.4903 C.2     1  UNL1        0.2462
     15 O          62.5135   91.0840   12.8053 O.2     1  UNL1       -0.2701
     16 N          64.2632   91.0288   10.8856 N.am    1  UNL1       -0.2987
     17 H          64.5708   90.6687   10.0225 H       1  UNL1        0.1500
     18 C          65.0753   92.0709   11.5958 C.3     1  UNL1        0.0944
     19 C          65.0036   92.1883   13.0895 C.3     1  UNL1        0.0262
     20 C          65.9591   92.9956   10.8123 C.ar    1  UNL1       -0.0045
     21 C          65.6304   94.4568   10.7301 C.ar    1  UNL1       -0.0027
     22 C          66.5142   95.3815    9.9467 C.ar    1  UNL1       -0.0003
     23 C          67.7268   94.8449    9.2454 C.ar    1  UNL1       -0.0000
     24 C          68.0556   93.3837    9.3276 C.ar    1  UNL1       -0.0003
     25 C          67.1717   92.4590   10.1111 C.ar    1  UNL1       -0.0027
     26 N          63.9446   88.7097   13.0686 N.pl3   1  UNL1       -0.3180
     27 H          64.2731   89.4970   12.5773 H       1  UNL1        0.1482
     28 C          64.2562   88.5522   14.5274 C.3     1  UNL1        0.0882
     29 C          63.8090   89.5966   15.5069 C.3     1  UNL1        0.0212
     30 C          62.9817   87.7497   17.1362 C.3     1  UNL1        0.0001
     31 C          63.0554   89.1946   16.7400 C.3     1  UNL1        0.0017
@<TRIPOS>BOND
     1    30    31    1
     2    31    29    1
     3    29    28    1
     4    28    26    1
     5    26     1    1
     6     1     2   ar
     7     2     3   ar
     8     3     4    1
     9     3     5   ar
    10     5     6   ar
    11     6     7   ar
    12     7     8   ar
    13     8     9   ar
    14     9    10   ar
    15    10    14    1
    16    14    15    2
    17    14    16   am
    18    16    18    1
    19    18    19    1
    20    18    20    1
    21    20    21   ar
    22    21    22   ar
    23    22    23   ar
    24    23    24   ar
    25    24    25   ar
    26    10    11   ar
    27    11     1   ar
    28    11     6   ar
    29    25    20   ar
    30    26    27    1
    31     4    12    1
    32     4    13    1
    33    16    17    1
@<TRIPOS>MOLECULE
*****
 31 33 0 0 0
SMALL
GASTEIGER

@<TRIPOS>ATOM
      1 C          63.4195   88.1297   12.6823 C.ar    1  UNL1        0.1329
      2 N          63.9165   89.4984   13.0421 N.ar    1  UNL1       -0.1993
      3 C          63.5036   90.6855   12.2234 C.ar    1  UNL1        0.2148
      4 N          64.0006   92.0543   12.5832 N.pl3   1  UNL1       -0.3274
      5 N          62.5937   90.5039   11.0448 N.ar    1  UNL1       -0.2139
      6 C          62.0966   89.1351   10.6850 C.ar    1  UNL1        0.0870
      7 C          61.1867   88.9534    9.5064 C.ar    1  UNL1        0.0193
      8 C          60.6897   87.5847    9.1466 C.ar    1  UNL1        0.0017
      9 C          61.1026   86.3976    9.9654 C.ar    1  UNL1        0.0047
     10 C          62.0125   86.5793   11.1439 C.ar    1  UNL1        0.0575
     11 C          62.5095   87.9480   11.5037 C.ar    1  UNL1        0.0535
     12 H          64.5979   92.1735   13.3568 H       1  UNL1        0.1452
     13 H          63.7297   92.8334   12.0459 H       1  UNL1        0.1452
     14 C          62.4254   85.3922   11.9627 C.2     1  UNL1        0.2462
     15 O          61.7526   85.1151   13.2743 O.2     1  UNL1       -0.2701
     16 N          63.5111   84.4821   11.4697 N.am    1  UNL1       -0.2987
     17 H          63.9527   84.6640   10.6088 H       1  UNL1        0.1500
     18 C          63.9240   83.2951   12.2885 C.3     1  UNL1        0.0944
     19 C          64.7915   83.4831   13.4977 C.3     1  UNL1        0.0262
     20 C          63.4695   81.9200   11.8980 C.ar    1  UNL1       -0.0045
     21 C          62.9923   80.9613   12.9484 C.ar    1  UNL1       -0.0027
     22 C          62.5378   79.5862   12.5580 C.ar    1  UNL1       -0.0003
     23 C          62.5604   79.1697   11.1171 C.ar    1  UNL1       -0.0000
     24 C          63.0376   80.1284   10.0667 C.ar    1  UNL1       -0.0003
     25 C          63.4922   81.5035   10.4572 C.ar    1  UNL1       -0.0027
     26 N          63.8324   86.9426   13.5011 N.pl3   1  UNL1       -0.3180
     27 H          63.8183   86.0419   13.1040 H       1  UNL1        0.1482
     28 C          64.2668   87.1280   14.9247 C.3     1  UNL1        0.0882
     29 C          64.1531   85.9918   15.8975 C.3     1  UNL1        0.0212
     30 C          62.6979   86.6736   17.9390 C.3     1  UNL1        0.0001
     31 C          62.9078   85.8285   16.7177 C.3     1  UNL1        0.0017
@<TRIPOS>BOND
     1    30    31    1
     2    31    29    1
     3    29    28    1
     4    28    26    1
     5    26     1    1
     6     1     2   ar
     7     2     3   ar
     8     3     4    1
     9     3     5   ar
    10     5     6   ar
    11     6     7   ar
    12     7     8   ar
    13     8     9   ar
    14     9    10   ar
    15    10    14    1
    16    14    15    2
    17    14    16   am
    18    16    18    1
    19    18    19    1
    20    18    20    1
    21    20    21   ar
    22    21    22   ar
    23    22    23   ar
    24    23    24   ar
    25    24    25   ar
    26    10    11   ar
    27    11     1   ar
    28    11     6   ar
    29    25    20   ar
    30    26    27    1
    31     4    12    1
    32     4    13    1
    33    16    17    1
@<TRIPOS>MOLECULE
*****
 31 33 0 0 0
SMALL
GASTEIGER

@<TRIPOS>ATOM
      1 C          62.6819   88.3067   11.6536 C.ar    1  UNL1        0.1329
      2 N          62.0346   87.7944   10.4013 N.ar    1  UNL1       -0.1993
      3 C          61.9392   86.3176   10.1563 C.ar    1  UNL1        0.2148
      4 N          61.2918   85.8053    8.9039 N.pl3   1  UNL1       -0.3274
      5 N          62.4912   85.3531   11.1638 N.ar    1  UNL1       -0.2139
      6 C          63.1386   85.8653   12.4162 C.ar    1  UNL1        0.0870
      7 C          63.6906   84.9008   13.4237 C.ar    1  UNL1        0.0193
      8 C          64.3379   85.4131   14.6760 C.ar    1  UNL1        0.0017
      9 C          64.4333   86.8899   14.9210 C.ar    1  UNL1        0.0047
     10 C          63.8813   87.8544   13.9135 C.ar    1  UNL1        0.0575
     11 C          63.2340   87.3421   12.6612 C.ar    1  UNL1        0.0535
     12 H          60.9295   86.4384    8.2427 H       1  UNL1        0.1452
     13 H          61.2292   84.8360    8.7431 H       1  UNL1        0.1452
     14 C          63.9767   89.3312   14.1584 C.2     1  UNL1        0.2462
     15 O          62.7579   90.1038   14.5680 O.2     1  UNL1       -0.2701
     16 N          65.2908   90.0354   13.9938 N.am    1  UNL1       -0.2987
     17 H          66.0907   89.5284   13.7250 H       1  UNL1        0.1500
     18 C          65.3861   91.5122   14.2387 C.3     1  UNL1        0.0944
     19 C          65.2930   92.0482   15.6367 C.3     1  UNL1        0.0262
     20 C          65.5747   92.4530   13.0858 C.ar    1  UNL1       -0.0045
     21 C          65.1095   92.0616   11.7145 C.ar    1  UNL1       -0.0027
     22 C          65.2980   93.0024   10.5616 C.ar    1  UNL1       -0.0003
     23 C          65.9517   94.3348   10.7799 C.ar    1  UNL1       -0.0000
     24 C          66.4169   94.7262   12.1512 C.ar    1  UNL1       -0.0003
     25 C          66.2284   93.7853   13.3041 C.ar    1  UNL1       -0.0027
     26 N          62.7773   89.7834   11.8985 N.pl3   1  UNL1       -0.3180
     27 H          63.3723   90.1282   12.6031 H       1  UNL1        0.1482
     28 C          61.9661   90.7350   11.0701 C.3     1  UNL1        0.0882
     29 C          60.5762   90.3631   10.6459 C.3     1  UNL1        0.0212
     30 C          59.0663   89.2075   12.4164 C.3     1  UNL1        0.0001
     31 C          59.4483   90.4280   11.6326 C.3     1  UNL1        0.0017
@<TRIPOS>BOND
     1    30    31    1
     2    31    29    1
     3    29    28    1
     4    28    26    1
     5    26     1    1
     6     1     2   ar
     7     2     3   ar
     8     3     4    1
     9     3     5   ar
    10     5     6   ar
    11     6     7   ar
    12     7     8   ar
    13     8     9   ar
    14     9    10   ar
    15    10    14    1
    16    14    15    2
    17    14    16   am
    18    16    18    1
    19    18    19    1
    20    18    20    1
    21    20    21   ar
    22    21    22   ar
    23    22    23   ar
    24    23    24   ar
    25    24    25   ar
    26    10    11   ar
    27    11     1   ar
    28    11     6   ar
    29    25    20   ar
    30    26    27    1
    31     4    12    1
    32     4    13    1
    33    16    17    1
@<TRIPOS>MOLECULE
*****
 31 33 0 0 0
SMALL
GASTEIGER

@<TRIPOS>ATOM
      1 C          64.7999   91.7561   12.3633 C.ar    1  UNL1        0.1329
      2 N          64.9324   92.3678   11.0001 N.ar    1  UNL1       -0.1993
      3 C          65.9241   93.4684   10.7651 C.ar    1  UNL1        0.2148
      4 N          66.0566   94.0801    9.4019 N.pl3   1  UNL1       -0.3274
      5 N          66.7832   93.9574   11.8933 N.ar    1  UNL1       -0.2139
      6 C          66.6507   93.3457   13.2566 C.ar    1  UNL1        0.0870
      7 C          67.5098   93.8347   14.3847 C.ar    1  UNL1        0.0193
      8 C          67.3772   93.2230   15.7479 C.ar    1  UNL1        0.0017
      9 C          66.3856   92.1223   15.9828 C.ar    1  UNL1        0.0047
     10 C          65.5265   91.6334   14.8547 C.ar    1  UNL1        0.0575
     11 C          65.6590   92.2451   13.4915 C.ar    1  UNL1        0.0535
     12 H          65.4927   93.7592    8.6614 H       1  UNL1        0.1452
     13 H          66.7074   94.8025    9.2477 H       1  UNL1        0.1452
     14 C          64.5348   90.5327   15.0897 C.2     1  UNL1        0.2462
     15 O          63.0883   90.8613   15.3118 O.2     1  UNL1       -0.2701
     16 N          64.9898   89.1035   15.1025 N.am    1  UNL1       -0.2987
     17 H          65.9392   88.8878   14.9567 H       1  UNL1        0.1500
     18 C          63.9981   88.0028   15.3375 C.3     1  UNL1        0.0944
     19 C          63.0057   88.1138   16.4568 C.3     1  UNL1        0.0262
     20 C          63.9989   86.7912   14.4532 C.ar    1  UNL1       -0.0045
     21 C          64.7467   85.5593   14.8695 C.ar    1  UNL1       -0.0027
     22 C          64.7474   84.3477   13.9853 C.ar    1  UNL1       -0.0003
     23 C          64.0004   84.3679   12.6846 C.ar    1  UNL1       -0.0000
     24 C          63.2526   85.5998   12.2683 C.ar    1  UNL1       -0.0003
     25 C          63.2519   86.8115   13.1526 C.ar    1  UNL1       -0.0027
     26 N          63.8082   90.6555   12.5983 N.pl3   1  UNL1       -0.3180
     27 H          63.9230   90.0442   13.3614 H       1  UNL1        0.1482
     28 C          62.6418   90.4862   11.6705 C.3     1  UNL1        0.0882
     29 C          62.7285   89.5218   10.5249 C.3     1  UNL1        0.0212
     30 C          61.8100   87.3758    9.3841 C.3     1  UNL1        0.0001
     31 C          61.5918   88.5833   10.2469 C.3     1  UNL1        0.0017
@<TRIPOS>BOND
     1    30    31    1
     2    31    29    1
     3    29    28    1
     4    28    26    1
     5    26     1    1
     6     1     2   ar
     7     2     3   ar
     8     3     4    1
     9     3     5   ar
    10     5     6   ar
    11     6     7   ar
    12     7     8   ar
    13     8     9   ar
    14     9    10   ar
    15    10    14    1
    16    14    15    2
    17    14    16   am
    18    16    18    1
    19    18    19    1
    20    18    20    1
    21    20    21   ar
    22    21    22   ar
    23    22    23   ar
    24    23    24   ar
    25    24    25   ar
    26    10    11   ar
    27    11     1   ar
    28    11     6   ar
    29    25    20   ar
    30    26    27    1
    31     4    12    1
    32     4    13    1
    33    16    17    1
@<TRIPOS>MOLECULE
*****
 31 33 0 0 0
SMALL
GASTEIGER

@<TRIPOS>ATOM
      1 C          62.7560   88.1468   10.8515 C.ar    1  UNL1        0.1329
      2 N          62.6283   89.4142   10.0595 N.ar    1  UNL1       -0.1993
      3 C          63.0395   90.7227   10.6668 C.ar    1  UNL1        0.2148
      4 N          62.9119   91.9902    9.8747 N.pl3   1  UNL1       -0.3274
      5 N          63.5783   90.7638   12.0660 N.ar    1  UNL1       -0.2139
      6 C          63.7060   89.4963   12.8581 C.ar    1  UNL1        0.0870
      7 C          64.2448   89.5374   14.2574 C.ar    1  UNL1        0.0193
      8 C          64.3724   88.2700   15.0494 C.ar    1  UNL1        0.0017
      9 C          63.9612   86.9615   14.4421 C.ar    1  UNL1        0.0047
     10 C          63.4224   86.9204   13.0428 C.ar    1  UNL1        0.0575
     11 C          63.2948   88.1878   12.2508 C.ar    1  UNL1        0.0535
     12 H          62.5582   91.9632    8.9563 H       1  UNL1        0.1452
     13 H          63.1817   92.8490   10.2732 H       1  UNL1        0.1452
     14 C          63.0112   85.6119   12.4356 C.2     1  UNL1        0.2462
     15 O          61.5650   85.3426   12.1424 O.2     1  UNL1       -0.2701
     16 N          64.0462   84.5727   12.1215 N.am    1  UNL1       -0.2987
     17 H          64.9955   84.7494   12.3139 H       1  UNL1        0.1500
     18 C          63.6351   83.2642   11.5142 C.3     1  UNL1        0.0944
     19 C          63.8813   83.0030   10.0577 C.3     1  UNL1        0.0262
     20 C          62.9777   82.2169   12.3633 C.ar    1  UNL1       -0.0045
     21 C          62.3174   82.6033   13.6535 C.ar    1  UNL1       -0.0027
     22 C          61.6601   81.5560   14.5027 C.ar    1  UNL1       -0.0003
     23 C          61.6631   80.1223   14.0616 C.ar    1  UNL1       -0.0000
     24 C          62.3234   79.7359   12.7714 C.ar    1  UNL1       -0.0003
     25 C          62.9808   80.7833   11.9223 C.ar    1  UNL1       -0.0027
     26 N          62.3448   86.8383   10.2443 N.pl3   1  UNL1       -0.3180
     27 H          62.4729   86.0010   10.7459 H       1  UNL1        0.1482
     28 C          61.7384   86.8056    8.8727 C.3     1  UNL1        0.0882
     29 C          60.3749   86.2146    8.6694 C.3     1  UNL1        0.0212
     30 C          59.4196   88.3855    7.6088 C.3     1  UNL1        0.0001
     31 C          59.3904   86.8938    7.7641 C.3     1  UNL1        0.0017
@<TRIPOS>BOND
     1    30    31    1
     2    31    29    1
     3    29    28    1
     4    28    26    1
     5    26     1    1
     6     1     2   ar
     7     2     3   ar
     8     3     4    1
     9     3     5   ar
    10     5     6   ar
    11     6     7   ar
    12     7     8   ar
    13     8     9   ar
    14     9    10   ar
    15    10    14    1
    16    14    15    2
    17    14    16   am
    18    16    18    1
    19    18    19    1
    20    18    20    1
    21    20    21   ar
    22    21    22   ar
    23    22    23   ar
    24    23    24   ar
    25    24    25   ar
    26    10    11   ar
    27    11     1   ar
    28    11     6   ar
    29    25    20   ar
    30    26    27    1
    31     4    12    1
    32     4    13    1
    33    16    17    1
@<TRIPOS>MOLECULE
*****
 31 33 0 0 0
SMALL
GASTEIGER

@<TRIPOS>ATOM
      1 C          62.7168   85.3417   11.5905 C.ar    1  UNL1        0.1329
      2 N          62.6620   85.6249   10.1185 N.ar    1  UNL1       -0.1993
      3 C          63.0673   84.5669    9.1355 C.ar    1  UNL1        0.2148
      4 N          63.0124   84.8501    7.6635 N.pl3   1  UNL1       -0.3274
      5 N          63.5273   83.2255    9.6245 N.ar    1  UNL1       -0.2139
      6 C          63.5822   82.9423   11.0966 C.ar    1  UNL1        0.0870
      7 C          64.0422   81.6010   11.5856 C.ar    1  UNL1        0.0193
      8 C          64.0970   81.3177   13.0576 C.ar    1  UNL1        0.0017
      9 C          63.6917   82.3758   14.0405 C.ar    1  UNL1        0.0047
     10 C          63.2317   83.7171   13.5515 C.ar    1  UNL1        0.0575
     11 C          63.1769   84.0003   12.0795 C.ar    1  UNL1        0.0535
     12 H          62.7105   85.7305    7.3425 H       1  UNL1        0.1452
     13 H          63.2784   84.1557    7.0183 H       1  UNL1        0.1452
     14 C          62.8264   84.7752   14.5345 C.2     1  UNL1        0.2462
     15 O          61.3793   84.9603   14.8831 O.2     1  UNL1       -0.2701
     16 N          63.8682   85.6482   15.1688 N.am    1  UNL1       -0.2987
     17 H          64.8181   85.5267   14.9401 H       1  UNL1        0.1500
     18 C          63.4630   86.7063   16.1518 C.3     1  UNL1        0.0944
     19 C          62.8165   86.3174   17.4483 C.3     1  UNL1        0.0262
     20 C          63.7041   88.1531   15.8383 C.ar    1  UNL1       -0.0045
     21 C          63.1672   89.2175   16.7487 C.ar    1  UNL1       -0.0027
     22 C          63.4084   90.6643   16.4352 C.ar    1  UNL1       -0.0003
     23 C          64.1865   91.0470   15.2112 C.ar    1  UNL1       -0.0000
     24 C          64.7234   89.9826   14.3007 C.ar    1  UNL1       -0.0003
     25 C          64.4822   88.5357   14.6143 C.ar    1  UNL1       -0.0027
     26 N          62.3115   86.3998   12.5734 N.pl3   1  UNL1       -0.3180
     27 H          62.3725   86.2231   13.5400 H       1  UNL1        0.1482
     28 C          61.8133   87.7272   12.0837 C.3     1  UNL1        0.0882
     29 C          62.7831   88.7476   11.5659 C.3     1  UNL1        0.0212
     30 C          63.1872   91.0836   10.5028 C.3     1  UNL1        0.0001
     31 C          62.3247   90.1511   11.3006 C.3     1  UNL1        0.0017
@<TRIPOS>BOND
     1    30    31    1
     2    31    29    1
     3    29    28    1
     4    28    26    1
     5    26     1    1
     6     1     2   ar
     7     2     3   ar
     8     3     4    1
     9     3     5   ar
    10     5     6   ar
    11     6     7   ar
    12     7     8   ar
    13     8     9   ar
    14     9    10   ar
    15    10    14    1
    16    14    15    2
    17    14    16   am
    18    16    18    1
    19    18    19    1
    20    18    20    1
    21    20    21   ar
    22    21    22   ar
    23    22    23   ar
    24    23    24   ar
    25    24    25   ar
    26    10    11   ar
    27    11     1   ar
    28    11     6   ar
    29    25    20   ar
    30    26    27    1
    31     4    12    1
    32     4    13    1
    33    16    17    1
