@<TRIPOS>MOLECULE
*****
 22 24 0 0 0
SMALL
GASTEIGER

@<TRIPOS>ATOM
      1 C          63.5244   90.5959   12.1541 C.3     1  UNL1        0.2082
      2 S          63.5014   91.2262   10.7931 S.3     1  UNL1       -0.0751
      3 C          64.4153   92.3743   10.4827 C.2     1  UNL1        0.0470
      4 C          65.3524   92.8922   11.5333 C.2     1  UNL1        0.0551
      5 C          66.2664   94.0404   11.2229 C.3     1  UNL1        0.0512
      6 N          65.3754   92.2620   12.8943 N.ar    1  UNL1       -0.2279
      7 C          64.4614   91.1138   13.2047 C.ar    1  UNL1        0.2066
      8 N          64.7061   90.6973   14.6248 N.ar    1  UNL1       -0.0545
      9 O          65.7714   91.5881   15.1920 O.2     1  UNL1       -0.2950
     10 C          66.1850   92.5551   14.1225 C.ar    1  UNL1        0.4470
     11 O          67.2256   93.6270   14.2576 O.2     1  UNL1       -0.2203
     12 C          62.4680   89.7581   11.4969 C.ar    1  UNL1        0.0191
     13 C          61.0612   89.7810   12.0171 C.ar    1  UNL1        0.0024
     14 C          60.0047   88.9433   11.3600 C.ar    1  UNL1        0.0367
     15 C          60.3549   88.0825   10.1824 C.ar    1  UNL1        0.1387
     16 C          61.7616   88.0596    9.6621 C.ar    1  UNL1        0.0367
     17 C          62.8181   88.8974   10.3194 C.ar    1  UNL1        0.0024
     18 O          59.2984   87.2448    9.5253 O.3     1  UNL1       -0.4714
     19 C          59.2245   87.1686    8.0290 C.3     1  UNL1        0.2525
     20 O          63.1806   89.6747   13.2868 O.3     1  UNL1       -0.3379
     21 C          64.2376   87.6662   14.5512 C.3     1  UNL1        0.0347
     22 C          63.6920   88.2646   13.2885 C.3     1  UNL1        0.1440
@<TRIPOS>BOND
     1    21    22    1
     2    22    20    1
     3    20     1    1
     4     1    12    1
     5    12    13   ar
     6    13    14   ar
     7    14    15   ar
     8    15    18    1
     9    18    19    1
    10    15    16   ar
    11    16    17   ar
    12     1     2    1
    13     2     3    1
    14     3     4    2
    15     4     5    1
    16     4     6    1
    17     6     7   ar
    18     7     8   ar
    19     8     9   ar
    20     9    10   ar
    21    10    11    2
    22     7     1    1
    23    17    12   ar
    24    10     6   ar
@<TRIPOS>MOLECULE
*****
 22 24 0 0 0
SMALL
GASTEIGER

@<TRIPOS>ATOM
      1 C          65.4944   92.2635   12.6199 C.3     1  UNL1        0.2082
      2 S          66.2396   93.2951   13.4140 S.3     1  UNL1       -0.0751
      3 C          66.1783   93.2764   14.9125 C.2     1  UNL1        0.0470
      4 C          65.3719   92.2260   15.6171 C.2     1  UNL1        0.0551
      5 C          65.3106   92.2073   17.1158 C.3     1  UNL1        0.0512
      6 N          64.6268   91.1944   14.8231 N.ar    1  UNL1       -0.2279
      7 C          64.6880   91.2131   13.3245 C.ar    1  UNL1        0.2066
      8 N          63.8551   90.0757   12.8122 N.ar    1  UNL1       -0.0545
      9 O          63.2790   89.3540   13.9942 O.2     1  UNL1       -0.2950
     10 C          63.7559   90.0454   15.2370 C.ar    1  UNL1        0.4470
     11 O          63.4208   89.6561   16.6463 O.2     1  UNL1       -0.2203
     12 C          66.1172   93.0506   11.5051 C.ar    1  UNL1        0.0191
     13 C          67.0657   92.3826   10.5542 C.ar    1  UNL1        0.0024
     14 C          67.6885   93.1695    9.4395 C.ar    1  UNL1        0.0367
     15 C          67.3629   94.6246    9.2755 C.ar    1  UNL1        0.1387
     16 C          66.4144   95.2926   10.2264 C.ar    1  UNL1        0.0367
     17 C          65.7915   94.5055   11.3412 C.ar    1  UNL1        0.0024
     18 O          67.9857   95.4115    8.1608 O.3     1  UNL1       -0.4714
     19 C          67.5475   96.8227    7.9029 C.3     1  UNL1        0.2525
     20 O          64.9656   91.5052   11.4387 O.3     1  UNL1       -0.3379
     21 C          62.8934   91.1243    9.9185 C.3     1  UNL1        0.0347
     22 C          63.8161   92.0555   10.6476 C.3     1  UNL1        0.1440
@<TRIPOS>BOND
     1    21    22    1
     2    22    20    1
     3    20     1    1
     4     1    12    1
     5    12    13   ar
     6    13    14   ar
     7    14    15   ar
     8    15    18    1
     9    18    19    1
    10    15    16   ar
    11    16    17   ar
    12     1     2    1
    13     2     3    1
    14     3     4    2
    15     4     5    1
    16     4     6    1
    17     6     7   ar
    18     7     8   ar
    19     8     9   ar
    20     9    10   ar
    21    10    11    2
    22     7     1    1
    23    17    12   ar
    24    10     6   ar
@<TRIPOS>MOLECULE
*****
 22 24 0 0 0
SMALL
GASTEIGER

@<TRIPOS>ATOM
      1 C          64.6167   90.7350   13.7912 C.3     1  UNL1        0.2082
      2 S          65.2700   91.1073   15.0892 S.3     1  UNL1       -0.0751
      3 C          66.0789   92.3666   15.1877 C.2     1  UNL1        0.0470
      4 C          66.2346   93.2537   13.9883 C.2     1  UNL1        0.0551
      5 C          67.0435   94.5130   14.0868 C.3     1  UNL1        0.0512
      6 N          65.5814   92.8815   12.6903 N.ar    1  UNL1       -0.2279
      7 C          64.7725   91.6221   12.5918 C.ar    1  UNL1        0.2066
      8 N          64.2493   91.5157   11.1900 N.ar    1  UNL1       -0.0545
      9 O          64.7350   92.7093   10.4222 O.2     1  UNL1       -0.2950
     10 C          65.5582   93.5534   11.3494 C.ar    1  UNL1        0.4470
     11 O          66.2388   94.8429   10.9975 O.2     1  UNL1       -0.2203
     12 C          64.1817   89.5793   14.6427 C.ar    1  UNL1        0.0191
     13 C          63.4681   89.8289   15.9382 C.ar    1  UNL1        0.0024
     14 C          63.0330   88.6733   16.7897 C.ar    1  UNL1        0.0367
     15 C          63.3117   87.2678   16.3457 C.ar    1  UNL1        0.1387
     16 C          64.0253   87.0181   15.0502 C.ar    1  UNL1        0.0367
     17 C          64.4604   88.1738   14.1987 C.ar    1  UNL1        0.0024
     18 O          62.8766   86.1121   17.1972 O.3     1  UNL1       -0.4714
     19 C          62.4632   84.8211   16.5551 C.3     1  UNL1        0.2525
     20 O          63.8125   89.9614   12.7890 O.3     1  UNL1       -0.3379
     21 C          61.5236   89.5043   11.6478 C.3     1  UNL1        0.0347
     22 C          62.3152   90.0513   12.7986 C.3     1  UNL1        0.1440
@<TRIPOS>BOND
     1    21    22    1
     2    22    20    1
     3    20     1    1
     4     1    12    1
     5    12    13   ar
     6    13    14   ar
     7    14    15   ar
     8    15    18    1
     9    18    19    1
    10    15    16   ar
    11    16    17   ar
    12     1     2    1
    13     2     3    1
    14     3     4    2
    15     4     5    1
    16     4     6    1
    17     6     7   ar
    18     7     8   ar
    19     8     9   ar
    20     9    10   ar
    21    10    11    2
    22     7     1    1
    23    17    12   ar
    24    10     6   ar
@<TRIPOS>MOLECULE
*****
 22 24 0 0 0
SMALL
GASTEIGER

@<TRIPOS>ATOM
      1 C          63.0417   85.5128   12.3785 C.3     1  UNL1        0.2082
      2 S          62.4262   85.4001   11.0151 S.3     1  UNL1       -0.0751
      3 C          62.0993   86.6389   10.2352 C.2     1  UNL1        0.0470
      4 C          62.3876   87.9904   10.8184 C.2     1  UNL1        0.0551
      5 C          62.0606   89.2292   10.0384 C.3     1  UNL1        0.0512
      6 N          63.0030   88.1031   12.1817 N.ar    1  UNL1       -0.2279
      7 C          63.3300   86.8643   12.9617 C.ar    1  UNL1        0.2066
      8 N          63.9273   87.2855   14.2717 N.ar    1  UNL1       -0.0545
      9 O          63.9695   88.7846   14.3012 O.2     1  UNL1       -0.2950
     10 C          63.3982   89.2899   13.0096 C.ar    1  UNL1        0.4470
     11 O          63.2485   90.7293   12.6150 O.2     1  UNL1       -0.2203
     12 C          62.9567   84.0204   12.2535 C.ar    1  UNL1        0.0191
     13 C          62.3065   83.2129   13.3375 C.ar    1  UNL1        0.0024
     14 C          62.2215   81.7205   13.2127 C.ar    1  UNL1        0.0367
     15 C          62.7867   81.0356   12.0037 C.ar    1  UNL1        0.1387
     16 C          63.4369   81.8432   10.9197 C.ar    1  UNL1        0.0367
     17 C          63.5219   83.3356   11.0446 C.ar    1  UNL1        0.0024
     18 O          62.7017   79.5433   11.8789 O.3     1  UNL1       -0.4714
     19 C          62.7681   78.8988   10.5260 C.3     1  UNL1        0.2525
     20 O          63.6275   85.1072   13.6984 O.3     1  UNL1       -0.3379
     21 C          66.0387   84.8718   14.6369 C.3     1  UNL1        0.0347
     22 C          64.9379   84.3787   13.7452 C.3     1  UNL1        0.1440
@<TRIPOS>BOND
     1    21    22    1
     2    22    20    1
     3    20     1    1
     4     1    12    1
     5    12    13   ar
     6    13    14   ar
     7    14    15   ar
     8    15    18    1
     9    18    19    1
    10    15    16   ar
    11    16    17   ar
    12     1     2    1
    13     2     3    1
    14     3     4    2
    15     4     5    1
    16     4     6    1
    17     6     7   ar
    18     7     8   ar
    19     8     9   ar
    20     9    10   ar
    21    10    11    2
    22     7     1    1
    23    17    12   ar
    24    10     6   ar
@<TRIPOS>MOLECULE
*****
 22 24 0 0 0
SMALL
GASTEIGER

@<TRIPOS>ATOM
      1 C          62.7064   90.1773   11.9214 C.3     1  UNL1        0.2082
      2 S          63.3870   90.8395   10.7602 S.3     1  UNL1       -0.0751
      3 C          64.5182   91.7950   10.9993 C.2     1  UNL1        0.0470
      4 C          64.9690   92.0883   12.3996 C.2     1  UNL1        0.0551
      5 C          66.1003   93.0438   12.6386 C.3     1  UNL1        0.0512
      6 N          64.2885   91.4261   13.5607 N.ar    1  UNL1       -0.2279
      7 C          63.1572   90.4706   13.3216 C.ar    1  UNL1        0.2066
      8 N          62.6814   89.9727   14.6542 N.ar    1  UNL1       -0.0545
      9 O          63.5186   90.6205   15.7169 O.2     1  UNL1       -0.2950
     10 C          64.5119   91.5188   15.0411 C.ar    1  UNL1        0.4470
     11 O          65.5468   92.3617   15.7255 O.2     1  UNL1       -0.2203
     12 C          61.9251   89.5823   10.7876 C.ar    1  UNL1        0.0191
     13 C          60.9540   90.4295   10.0200 C.ar    1  UNL1        0.0024
     14 C          60.1726   89.8346    8.8862 C.ar    1  UNL1        0.0367
     15 C          60.3624   88.3924    8.5198 C.ar    1  UNL1        0.1387
     16 C          61.3335   87.5452    9.2874 C.ar    1  UNL1        0.0367
     17 C          62.1149   88.1401   10.4213 C.ar    1  UNL1        0.0024
     18 O          59.5810   87.7976    7.3860 O.3     1  UNL1       -0.4714
     19 C          58.9709   86.4348    7.5292 C.3     1  UNL1        0.2525
     20 O          61.7545   89.3084   12.6888 O.3     1  UNL1       -0.3379
     21 C          59.2115   88.7904   12.5683 C.3     1  UNL1        0.0347
     22 C          60.3305   89.7403   12.8774 C.3     1  UNL1        0.1440
@<TRIPOS>BOND
     1    21    22    1
     2    22    20    1
     3    20     1    1
     4     1    12    1
     5    12    13   ar
     6    13    14   ar
     7    14    15   ar
     8    15    18    1
     9    18    19    1
    10    15    16   ar
    11    16    17   ar
    12     1     2    1
    13     2     3    1
    14     3     4    2
    15     4     5    1
    16     4     6    1
    17     6     7   ar
    18     7     8   ar
    19     8     9   ar
    20     9    10   ar
    21    10    11    2
    22     7     1    1
    23    17    12   ar
    24    10     6   ar
@<TRIPOS>MOLECULE
*****
 22 24 0 0 0
SMALL
GASTEIGER

@<TRIPOS>ATOM
      1 C          63.1865   86.6286   12.4125 C.3     1  UNL1        0.2082
      2 S          63.7750   86.2804   13.7476 S.3     1  UNL1       -0.0751
      3 C          64.2650   87.3674   14.6577 C.2     1  UNL1        0.0470
      4 C          64.1666   88.8025   14.2328 C.2     1  UNL1        0.0551
      5 C          64.6566   89.8895   15.1429 C.3     1  UNL1        0.0512
      6 N          63.5781   89.1507   12.8977 N.ar    1  UNL1       -0.2279
      7 C          63.0880   88.0637   11.9875 C.ar    1  UNL1        0.2066
      8 N          62.5594   88.7070   10.7399 N.ar    1  UNL1       -0.0545
      9 O          62.7227   90.1916   10.8789 O.2     1  UNL1       -0.2950
     10 C          63.3523   90.4658   12.2125 C.ar    1  UNL1        0.4470
     11 O          63.6957   91.8178   12.7641 O.2     1  UNL1       -0.2203
     12 C          63.0661   85.1341   12.3685 C.ar    1  UNL1        0.0191
     13 C          63.4448   84.3874   11.1239 C.ar    1  UNL1        0.0024
     14 C          63.3244   82.8930   11.0798 C.ar    1  UNL1        0.0367
     15 C          62.8253   82.1450   12.2805 C.ar    1  UNL1        0.1387
     16 C          62.4466   82.8916   13.5251 C.ar    1  UNL1        0.0367
     17 C          62.5670   84.3862   13.5691 C.ar    1  UNL1        0.0024
     18 O          62.7050   80.6505   12.2364 O.3     1  UNL1       -0.4714
     19 C          62.2532   79.8982   13.4529 C.3     1  UNL1        0.2525
     20 O          62.5562   86.4578   11.0622 O.3     1  UNL1       -0.3379
     21 C          60.4319   86.4540    9.5663 C.3     1  UNL1        0.0347
     22 C          61.0623   86.4490   10.9274 C.3     1  UNL1        0.1440
@<TRIPOS>BOND
     1    21    22    1
     2    22    20    1
     3    20     1    1
     4     1    12    1
     5    12    13   ar
     6    13    14   ar
     7    14    15   ar
     8    15    18    1
     9    18    19    1
    10    15    16   ar
    11    16    17   ar
    12     1     2    1
    13     2     3    1
    14     3     4    2
    15     4     5    1
    16     4     6    1
    17     6     7   ar
    18     7     8   ar
    19     8     9   ar
    20     9    10   ar
    21    10    11    2
    22     7     1    1
    23    17    12   ar
    24    10     6   ar
@<TRIPOS>MOLECULE
*****
 22 24 0 0 0
SMALL
GASTEIGER

@<TRIPOS>ATOM
      1 C          63.1278   86.3010   12.6418 C.3     1  UNL1        0.2082
      2 S          62.4136   86.1653   11.3297 S.3     1  UNL1       -0.0751
      3 C          62.0861   87.3873   10.5241 C.2     1  UNL1        0.0470
      4 C          62.4727   88.7453   11.0305 C.2     1  UNL1        0.0551
      5 C          62.1452   89.9674   10.2248 C.3     1  UNL1        0.0512
      6 N          63.1869   88.8811   12.3426 N.ar    1  UNL1       -0.2279
      7 C          63.5144   87.6590   13.1482 C.ar    1  UNL1        0.2066
      8 N          64.2201   88.1015   14.3957 N.ar    1  UNL1       -0.0545
      9 O          64.3286   89.5972   14.3610 O.2     1  UNL1       -0.2950
     10 C          63.6901   90.0790   13.0921 C.ar    1  UNL1        0.4470
     11 O          63.5750   91.5078   12.6504 O.2     1  UNL1       -0.2203
     12 C          62.9701   84.8105   12.5841 C.ar    1  UNL1        0.0191
     13 C          63.3394   84.0651   11.3358 C.ar    1  UNL1        0.0024
     14 C          63.1818   82.5746   11.2779 C.ar    1  UNL1        0.0367
     15 C          62.6549   81.8293   12.4684 C.ar    1  UNL1        0.1387
     16 C          62.2857   82.5746   13.7166 C.ar    1  UNL1        0.0367
     17 C          62.4433   84.0653   13.7744 C.ar    1  UNL1        0.0024
     18 O          62.4973   80.3387   12.4104 O.3     1  UNL1       -0.4714
     19 C          62.0619   79.5825   13.6306 C.3     1  UNL1        0.2525
     20 O          63.7872   85.9192   13.9338 O.3     1  UNL1       -0.3379
     21 C          66.1128   85.2543   14.8823 C.3     1  UNL1        0.0347
     22 C          64.9821   85.0125   13.9268 C.3     1  UNL1        0.1440
@<TRIPOS>BOND
     1    21    22    1
     2    22    20    1
     3    20     1    1
     4     1    12    1
     5    12    13   ar
     6    13    14   ar
     7    14    15   ar
     8    15    18    1
     9    18    19    1
    10    15    16   ar
    11    16    17   ar
    12     1     2    1
    13     2     3    1
    14     3     4    2
    15     4     5    1
    16     4     6    1
    17     6     7   ar
    18     7     8   ar
    19     8     9   ar
    20     9    10   ar
    21    10    11    2
    22     7     1    1
    23    17    12   ar
    24    10     6   ar
@<TRIPOS>MOLECULE
*****
 22 24 0 0 0
SMALL
GASTEIGER

@<TRIPOS>ATOM
      1 C          62.2148   87.0508   11.4320 C.3     1  UNL1        0.2082
      2 S          61.9102   85.7139   10.8238 S.3     1  UNL1       -0.0751
      3 C          62.4528   84.4637   11.4503 C.2     1  UNL1        0.0470
      4 C          63.3002   84.5504   12.6849 C.2     1  UNL1        0.0551
      5 C          63.8428   83.3002   13.3114 C.3     1  UNL1        0.0512
      6 N          63.6048   85.8873   13.2931 N.ar    1  UNL1       -0.2279
      7 C          63.0622   87.1375   12.6667 C.ar    1  UNL1        0.2066
      8 N          63.5270   88.3055   13.4850 N.ar    1  UNL1       -0.0545
      9 O          64.3570   87.7772   14.6172 O.2     1  UNL1       -0.2950
     10 C          64.4051   86.2826   14.4987 C.ar    1  UNL1        0.4470
     11 O          65.1267   85.3476   15.4233 O.2     1  UNL1       -0.2203
     12 C          61.3716   87.4801   10.2681 C.ar    1  UNL1        0.0191
     13 C          61.3970   86.6916    8.9923 C.ar    1  UNL1        0.0024
     14 C          60.5538   87.1208    7.8284 C.ar    1  UNL1        0.0367
     15 C          59.6851   88.3387    7.9402 C.ar    1  UNL1        0.1387
     16 C          59.6597   89.1272    9.2160 C.ar    1  UNL1        0.0367
     17 C          60.5030   88.6979   10.3799 C.ar    1  UNL1        0.0024
     18 O          58.8420   88.7678    6.7763 O.3     1  UNL1       -0.4714
     19 C          59.2113   89.9933    5.9939 C.3     1  UNL1        0.2525
     20 O          62.2266   88.5368   11.6360 O.3     1  UNL1       -0.3379
     21 C          63.1763   90.8781   11.0308 C.3     1  UNL1        0.0347
     22 C          63.0655   89.4089   10.7496 C.3     1  UNL1        0.1440
@<TRIPOS>BOND
     1    21    22    1
     2    22    20    1
     3    20     1    1
     4     1    12    1
     5    12    13   ar
     6    13    14   ar
     7    14    15   ar
     8    15    18    1
     9    18    19    1
    10    15    16   ar
    11    16    17   ar
    12     1     2    1
    13     2     3    1
    14     3     4    2
    15     4     5    1
    16     4     6    1
    17     6     7   ar
    18     7     8   ar
    19     8     9   ar
    20     9    10   ar
    21    10    11    2
    22     7     1    1
    23    17    12   ar
    24    10     6   ar
@<TRIPOS>MOLECULE
*****
 22 24 0 0 0
SMALL
GASTEIGER

@<TRIPOS>ATOM
      1 C          62.4431   85.4281   11.7849 C.3     1  UNL1        0.2082
      2 S          62.2979   84.2430   10.8767 S.3     1  UNL1       -0.0751
      3 C          62.8523   82.9111   11.2873 C.2     1  UNL1        0.0470
      4 C          63.5520   82.7642   12.6059 C.2     1  UNL1        0.0551
      5 C          64.1064   81.4322   13.0165 C.3     1  UNL1        0.0512
      6 N          63.6972   83.9492   13.5140 N.ar    1  UNL1       -0.2279
      7 C          63.1427   85.2811   13.1035 C.ar    1  UNL1        0.2066
      8 N          63.4353   86.2627   14.1993 N.ar    1  UNL1       -0.0545
      9 O          64.1706   85.5374   15.2871 O.2     1  UNL1       -0.2950
     10 C          64.3324   84.1076   14.8636 C.ar    1  UNL1        0.4470
     11 O          65.0105   83.0261   15.6514 O.2     1  UNL1       -0.2203
     12 C          61.7048   86.0630   10.6439 C.ar    1  UNL1        0.0191
     13 C          60.6073   87.0485   10.9166 C.ar    1  UNL1        0.0024
     14 C          59.8690   87.6836    9.7758 C.ar    1  UNL1        0.0367
     15 C          60.2281   87.3331    8.3621 C.ar    1  UNL1        0.1387
     16 C          61.3256   86.3476    8.0895 C.ar    1  UNL1        0.0367
     17 C          62.0640   85.7126    9.2304 C.ar    1  UNL1        0.0024
     18 O          59.4898   87.9682    7.2213 O.3     1  UNL1       -0.4714
     19 C          59.5684   89.4511    7.0096 C.3     1  UNL1        0.2525
     20 O          62.3319   86.8335   12.2967 O.3     1  UNL1       -0.3379
     21 C          63.1678   89.2934   12.2711 C.3     1  UNL1        0.0347
     22 C          63.1057   87.9358   11.6362 C.3     1  UNL1        0.1440
@<TRIPOS>BOND
     1    21    22    1
     2    22    20    1
     3    20     1    1
     4     1    12    1
     5    12    13   ar
     6    13    14   ar
     7    14    15   ar
     8    15    18    1
     9    18    19    1
    10    15    16   ar
    11    16    17   ar
    12     1     2    1
    13     2     3    1
    14     3     4    2
    15     4     5    1
    16     4     6    1
    17     6     7   ar
    18     7     8   ar
    19     8     9   ar
    20     9    10   ar
    21    10    11    2
    22     7     1    1
    23    17    12   ar
    24    10     6   ar
