@<TRIPOS>MOLECULE
*****
 17 19 0 0 0
SMALL
GASTEIGER

@<TRIPOS>ATOM
      1 C          64.7693   91.7969   13.7961 C.2     1  UNL1        0.2246
      2 N          64.6562   91.8705   12.3022 N.2     1  UNL1       -0.1673
      3 C          65.7957   92.4098   11.4894 C.2     1  UNL1        0.3412
      4 N          67.0484   92.8756   12.1706 N.2     1  UNL1       -0.0117
      5 C          67.1615   92.8021   13.6645 C.2     1  UNL1        0.3660
      6 N          68.2635   93.1841   14.6076 N.2     1  UNL1       -0.0341
      7 C          67.8051   92.8809   16.0032 C.2     1  UNL1        0.2322
      8 C          66.4197   92.3114   15.9227 C.2     1  UNL1        0.0457
      9 C          66.0219   92.2627   14.4772 C.3     1  UNL1        0.2137
     10 O          63.6298   91.2576   14.6088 O.3     1  UNL1       -0.4389
     11 F          63.7805   85.6006   16.6029 F       1  UNL1       -0.2042
     12 C          63.7428   87.0149   16.1044 C.ar    1  UNL1        0.1403
     13 C          63.1085   88.0877   16.9391 C.ar    1  UNL1        0.0328
     14 C          63.0708   89.5020   16.4406 C.ar    1  UNL1        0.0398
     15 C          63.6674   89.8434   15.1074 C.ar    1  UNL1        0.1470
     16 C          64.3017   88.7706   14.2726 C.ar    1  UNL1        0.0398
     17 C          64.3394   87.3563   14.7711 C.ar    1  UNL1        0.0328
@<TRIPOS>BOND
     1    11    12    1
     2    12    13   ar
     3    13    14   ar
     4    14    15   ar
     5    15    10    1
     6    10     1    1
     7     1     2    2
     8     2     3    1
     9     3     4    2
    10     4     5    1
    11     5     6    2
    12     6     7    1
    13     7     8    2
    14     8     9    1
    15    15    16   ar
    16    16    17   ar
    17    17    12   ar
    18     9     1    1
    19     9     5    1
@<TRIPOS>MOLECULE
*****
 17 19 0 0 0
SMALL
GASTEIGER

@<TRIPOS>ATOM
      1 C          64.9197   91.8959   14.5638 C.2     1  UNL1        0.2246
      2 N          65.7164   92.3115   15.7648 N.2     1  UNL1       -0.1673
      3 C          67.0011   93.0654   15.5884 C.2     1  UNL1        0.3412
      4 N          67.4892   93.4036   14.2109 N.2     1  UNL1       -0.0117
      5 C          66.6924   92.9880   13.0099 C.2     1  UNL1        0.3660
      6 N          66.9200   93.1785   11.5395 N.2     1  UNL1       -0.0341
      7 C          65.7758   92.5423   10.8072 C.2     1  UNL1        0.2322
      8 C          64.8412   91.9586   11.8250 C.2     1  UNL1        0.0457
      9 C          65.4077   92.2341   13.1863 C.3     1  UNL1        0.2137
     10 O          63.6350   91.1420   14.7403 O.3     1  UNL1       -0.4389
     11 F          63.7340   85.4421   16.6116 F       1  UNL1       -0.2042
     12 C          63.7092   86.8671   16.1438 C.ar    1  UNL1        0.1403
     13 C          63.0750   87.9255   16.9966 C.ar    1  UNL1        0.0328
     14 C          63.0502   89.3506   16.5288 C.ar    1  UNL1        0.0398
     15 C          63.6597   89.7170   15.2081 C.ar    1  UNL1        0.1470
     16 C          64.2940   88.6586   14.3552 C.ar    1  UNL1        0.0398
     17 C          64.3187   87.2336   14.8230 C.ar    1  UNL1        0.0328
@<TRIPOS>BOND
     1    11    12    1
     2    12    13   ar
     3    13    14   ar
     4    14    15   ar
     5    15    10    1
     6    10     1    1
     7     1     2    2
     8     2     3    1
     9     3     4    2
    10     4     5    1
    11     5     6    2
    12     6     7    1
    13     7     8    2
    14     8     9    1
    15    15    16   ar
    16    16    17   ar
    17    17    12   ar
    18     9     1    1
    19     9     5    1
@<TRIPOS>MOLECULE
*****
 17 19 0 0 0
SMALL
GASTEIGER

@<TRIPOS>ATOM
      1 C          63.8365   83.6851   12.4582 C.2     1  UNL1        0.2246
      2 N          64.1303   84.7242   13.4993 N.2     1  UNL1       -0.1673
      3 C          63.8398   84.4420   14.9435 C.2     1  UNL1        0.3412
      4 N          63.2555   83.1206   15.3468 N.2     1  UNL1       -0.0117
      5 C          62.9617   82.0814   14.3057 C.2     1  UNL1        0.3660
      6 N          62.3899   80.6981   14.4018 N.2     1  UNL1       -0.0341
      7 C          62.3269   80.1254   13.0169 C.2     1  UNL1        0.2322
      8 C          62.8598   81.1547   12.0648 C.2     1  UNL1        0.0457
      9 C          63.2522   82.3637   12.8614 C.3     1  UNL1        0.2137
     10 O          64.1269   83.9673   11.0139 O.3     1  UNL1       -0.4389
     11 F          60.1456   86.9799    7.6862 F       1  UNL1       -0.2042
     12 C          61.1410   86.2267    8.5181 C.ar    1  UNL1        0.1403
     13 C          62.2605   85.4803    7.8552 C.ar    1  UNL1        0.0328
     14 C          63.2559   84.7271    8.6871 C.ar    1  UNL1        0.0398
     15 C          63.1316   84.7204   10.1820 C.ar    1  UNL1        0.1470
     16 C          62.0121   85.4669   10.8449 C.ar    1  UNL1        0.0398
     17 C          61.0167   86.2200   10.0130 C.ar    1  UNL1        0.0328
@<TRIPOS>BOND
     1    11    12    1
     2    12    13   ar
     3    13    14   ar
     4    14    15   ar
     5    15    10    1
     6    10     1    1
     7     1     2    2
     8     2     3    1
     9     3     4    2
    10     4     5    1
    11     5     6    2
    12     6     7    1
    13     7     8    2
    14     8     9    1
    15    15    16   ar
    16    16    17   ar
    17    17    12   ar
    18     9     1    1
    19     9     5    1
@<TRIPOS>MOLECULE
*****
 17 19 0 0 0
SMALL
GASTEIGER

@<TRIPOS>ATOM
      1 C          63.2753   84.1116   12.5569 C.2     1  UNL1        0.2246
      2 N          63.3736   85.1219   13.6613 N.2     1  UNL1       -0.1673
      3 C          63.1759   84.6970   15.0862 C.2     1  UNL1        0.3412
      4 N          62.8798   83.2618   15.4067 N.2     1  UNL1       -0.0117
      5 C          62.7815   82.2516   14.3023 C.2     1  UNL1        0.3660
      6 N          62.5038   80.7776   14.3122 N.2     1  UNL1       -0.0341
      7 C          62.5299   80.2915   12.8934 C.2     1  UNL1        0.2322
      8 C          62.8237   81.4651   12.0066 C.2     1  UNL1        0.0457
      9 C          62.9792   82.6765   12.8774 C.3     1  UNL1        0.2137
     10 O          63.4730   84.5366   11.1320 O.3     1  UNL1       -0.4389
     11 F          59.3755   87.9920    8.4356 F       1  UNL1       -0.2042
     12 C          60.3999   87.1282    9.1098 C.ar    1  UNL1        0.1403
     13 C          60.5034   87.1163   10.6061 C.ar    1  UNL1        0.0328
     14 C          61.5278   86.2524   11.2802 C.ar    1  UNL1        0.0398
     15 C          62.4486   85.4004   10.4579 C.ar    1  UNL1        0.1470
     16 C          62.3451   85.4122    8.9615 C.ar    1  UNL1        0.0398
     17 C          61.3207   86.2761    8.2874 C.ar    1  UNL1        0.0328
@<TRIPOS>BOND
     1    11    12    1
     2    12    13   ar
     3    13    14   ar
     4    14    15   ar
     5    15    10    1
     6    10     1    1
     7     1     2    2
     8     2     3    1
     9     3     4    2
    10     4     5    1
    11     5     6    2
    12     6     7    1
    13     7     8    2
    14     8     9    1
    15    15    16   ar
    16    16    17   ar
    17    17    12   ar
    18     9     1    1
    19     9     5    1
@<TRIPOS>MOLECULE
*****
 17 19 0 0 0
SMALL
GASTEIGER

@<TRIPOS>ATOM
      1 C          61.6746   86.4215    8.7065 C.2     1  UNL1        0.2246
      2 N          60.5966   85.8002    7.8688 N.2     1  UNL1       -0.1673
      3 C          59.2936   86.5164    7.6713 C.2     1  UNL1        0.3412
      4 N          59.0685   87.8541    8.3116 N.2     1  UNL1       -0.0117
      5 C          60.1465   88.4755    9.1494 C.2     1  UNL1        0.3660
      6 N          60.2121   89.7725    9.8999 N.2     1  UNL1       -0.0341
      7 C          61.5557   89.8579   10.5612 C.2     1  UNL1        0.2322
      8 C          62.3205   88.6136   10.2194 C.2     1  UNL1        0.0457
      9 C          61.4495   87.7592    9.3468 C.3     1  UNL1        0.2137
     10 O          62.9776   85.7052    8.9039 O.3     1  UNL1       -0.4389
     11 F          63.5837   81.7599   13.3836 F       1  UNL1       -0.2042
     12 C          63.4322   82.7463   12.2637 C.ar    1  UNL1        0.1403
     13 C          62.6574   84.0124   12.4791 C.ar    1  UNL1        0.0328
     14 C          62.5058   84.9988   11.3591 C.ar    1  UNL1        0.0398
     15 C          63.1291   84.7189   10.0238 C.ar    1  UNL1        0.1470
     16 C          63.9041   83.4528    9.8084 C.ar    1  UNL1        0.0398
     17 C          64.0556   82.4665   10.9283 C.ar    1  UNL1        0.0328
@<TRIPOS>BOND
     1    11    12    1
     2    12    13   ar
     3    13    14   ar
     4    14    15   ar
     5    15    10    1
     6    10     1    1
     7     1     2    2
     8     2     3    1
     9     3     4    2
    10     4     5    1
    11     5     6    2
    12     6     7    1
    13     7     8    2
    14     8     9    1
    15    15    16   ar
    16    16    17   ar
    17    17    12   ar
    18     9     1    1
    19     9     5    1
@<TRIPOS>MOLECULE
*****
 17 19 0 0 0
SMALL
GASTEIGER

@<TRIPOS>ATOM
      1 C          64.7246   91.8281   12.2218 C.2     1  UNL1        0.2246
      2 N          64.8890   92.4166   10.8519 N.2     1  UNL1       -0.1673
      3 C          66.1927   93.0442   10.4568 C.2     1  UNL1        0.3412
      4 N          67.3322   93.0834   11.4315 N.2     1  UNL1       -0.0117
      5 C          67.1679   92.4948   12.8014 C.2     1  UNL1        0.3660
      6 N          68.1062   92.3872   13.9667 N.2     1  UNL1       -0.0341
      7 C          67.3823   91.6930   15.0821 C.2     1  UNL1        0.2322
      8 C          65.9966   91.3716   14.6061 C.2     1  UNL1        0.0457
      9 C          65.8641   91.8672   13.1966 C.3     1  UNL1        0.2137
     10 O          63.4208   91.2004   12.6170 O.3     1  UNL1       -0.4389
     11 F          60.9621   86.9597    9.1570 F       1  UNL1       -0.2042
     12 C          61.5768   88.0199   10.0220 C.ar    1  UNL1        0.1403
     13 C          62.4190   87.6310   11.2007 C.ar    1  UNL1        0.0328
     14 C          63.0337   88.6912   12.0658 C.ar    1  UNL1        0.0398
     15 C          62.8061   90.1402   11.7520 C.ar    1  UNL1        0.1470
     16 C          61.9639   90.5292   10.5732 C.ar    1  UNL1        0.0398
     17 C          61.3493   89.4690    9.7083 C.ar    1  UNL1        0.0328
@<TRIPOS>BOND
     1    11    12    1
     2    12    13   ar
     3    13    14   ar
     4    14    15   ar
     5    15    10    1
     6    10     1    1
     7     1     2    2
     8     2     3    1
     9     3     4    2
    10     4     5    1
    11     5     6    2
    12     6     7    1
    13     7     8    2
    14     8     9    1
    15    15    16   ar
    16    16    17   ar
    17    17    12   ar
    18     9     1    1
    19     9     5    1
@<TRIPOS>MOLECULE
*****
 17 19 0 0 0
SMALL
GASTEIGER

@<TRIPOS>ATOM
      1 C          62.7279   84.8791   13.1843 C.2     1  UNL1        0.2246
      2 N          63.5894   85.7693   14.0301 N.2     1  UNL1       -0.1673
      3 C          64.5366   85.1697   15.0265 C.2     1  UNL1        0.3412
      4 N          64.6225   83.6797   15.1773 N.2     1  UNL1       -0.0117
      5 C          63.7611   82.7895   14.3315 C.2     1  UNL1        0.3660
      6 N          63.6280   81.2972   14.2578 N.2     1  UNL1       -0.0341
      7 C          62.5985   80.9746   13.2158 C.2     1  UNL1        0.2322
      8 C          62.0952   82.2675   12.6454 C.2     1  UNL1        0.0457
      9 C          62.8138   83.3892   13.3350 C.3     1  UNL1        0.2137
     10 O          61.7806   85.4788   12.1878 O.3     1  UNL1       -0.4389
     11 F          62.8776   84.9522    6.3124 F       1  UNL1       -0.2042
     12 C          62.6033   85.0839    7.7813 C.ar    1  UNL1        0.1403
     13 C          61.4450   85.9097    8.2569 C.ar    1  UNL1        0.0328
     14 C          61.1707   86.0413    9.7258 C.ar    1  UNL1        0.0398
     15 C          62.0549   85.3471   10.7189 C.ar    1  UNL1        0.1470
     16 C          63.2133   84.5213   10.2434 C.ar    1  UNL1        0.0398
     17 C          63.4875   84.3897    8.7745 C.ar    1  UNL1        0.0328
@<TRIPOS>BOND
     1    11    12    1
     2    12    13   ar
     3    13    14   ar
     4    14    15   ar
     5    15    10    1
     6    10     1    1
     7     1     2    2
     8     2     3    1
     9     3     4    2
    10     4     5    1
    11     5     6    2
    12     6     7    1
    13     7     8    2
    14     8     9    1
    15    15    16   ar
    16    16    17   ar
    17    17    12   ar
    18     9     1    1
    19     9     5    1
@<TRIPOS>MOLECULE
*****
 17 19 0 0 0
SMALL
GASTEIGER

@<TRIPOS>ATOM
      1 C          63.9830   86.5505   15.3262 C.2     1  UNL1        0.2246
      2 N          63.4547   85.7288   16.4645 N.2     1  UNL1       -0.1673
      3 C          62.8258   86.4030   17.6476 C.2     1  UNL1        0.3412
      4 N          62.7250   87.8990   17.6925 N.2     1  UNL1       -0.0117
      5 C          63.2533   88.7207   16.5542 C.2     1  UNL1        0.3660
      6 N          63.2936   90.2017   16.3194 N.2     1  UNL1       -0.0341
      7 C          63.9476   90.4427   14.9912 C.2     1  UNL1        0.2322
      8 C          64.3114   89.1107   14.4050 C.2     1  UNL1        0.0457
      9 C          63.8822   88.0465   15.3711 C.3     1  UNL1        0.2137
     10 O          64.6119   85.8763   14.1431 O.3     1  UNL1       -0.4389
     11 F          62.3501   80.7171   12.0773 F       1  UNL1       -0.2042
     12 C          62.9155   82.0070   12.5937 C.ar    1  UNL1        0.1403
     13 C          62.7032   83.2790   11.8277 C.ar    1  UNL1        0.0328
     14 C          63.2687   84.5688   12.3442 C.ar    1  UNL1        0.0398
     15 C          64.0465   84.5865   13.6266 C.ar    1  UNL1        0.1470
     16 C          64.2589   83.3144   14.3927 C.ar    1  UNL1        0.0398
     17 C          63.6934   82.0247   13.8762 C.ar    1  UNL1        0.0328
@<TRIPOS>BOND
     1    11    12    1
     2    12    13   ar
     3    13    14   ar
     4    14    15   ar
     5    15    10    1
     6    10     1    1
     7     1     2    2
     8     2     3    1
     9     3     4    2
    10     4     5    1
    11     5     6    2
    12     6     7    1
    13     7     8    2
    14     8     9    1
    15    15    16   ar
    16    16    17   ar
    17    17    12   ar
    18     9     1    1
    19     9     5    1
@<TRIPOS>MOLECULE
*****
 17 19 0 0 0
SMALL
GASTEIGER

@<TRIPOS>ATOM
      1 C          62.5237   87.6534   11.6463 C.2     1  UNL1        0.2246
      2 N          62.6278   86.2300   12.1080 N.2     1  UNL1       -0.1673
      3 C          63.4143   85.8971   13.3410 C.2     1  UNL1        0.3412
      4 N          64.0968   86.9876   14.1125 N.2     1  UNL1       -0.0117
      5 C          63.9927   88.4110   13.6508 C.2     1  UNL1        0.3660
      6 N          64.5533   89.6884   14.2020 N.2     1  UNL1       -0.0341
      7 C          64.1133   90.8108   13.3095 C.2     1  UNL1        0.2322
      8 C          63.2807   90.2271   12.2067 C.2     1  UNL1        0.0457
      9 C          63.2061   88.7439   12.4177 C.3     1  UNL1        0.2137
     10 O          61.7372   87.9862   10.4131 O.3     1  UNL1       -0.4389
     11 F          61.3361   84.0027    5.9442 F       1  UNL1       -0.2042
     12 C          61.4365   84.9986    7.0615 C.ar    1  UNL1        0.1403
     13 C          62.7373   85.1866    7.7841 C.ar    1  UNL1        0.0328
     14 C          62.8376   86.1825    8.9014 C.ar    1  UNL1        0.0398
     15 C          61.6369   86.9904    9.2959 C.ar    1  UNL1        0.1470
     16 C          60.3359   86.8024    8.5733 C.ar    1  UNL1        0.0398
     17 C          60.2357   85.8066    7.4561 C.ar    1  UNL1        0.0328
@<TRIPOS>BOND
     1    11    12    1
     2    12    13   ar
     3    13    14   ar
     4    14    15   ar
     5    15    10    1
     6    10     1    1
     7     1     2    2
     8     2     3    1
     9     3     4    2
    10     4     5    1
    11     5     6    2
    12     6     7    1
    13     7     8    2
    14     8     9    1
    15    15    16   ar
    16    16    17   ar
    17    17    12   ar
    18     9     1    1
    19     9     5    1
