@<TRIPOS>MOLECULE
*****
 22 23 0 0 0
SMALL
GASTEIGER

@<TRIPOS>ATOM
      1 C          61.3781   88.1201    9.5465 C.ar    1  UNL1        0.0366
      2 C          60.5259   89.1596    8.8808 C.ar    1  UNL1        0.0007
      3 C          59.4804   88.7483    7.8870 C.ar    1  UNL1       -0.0002
      4 C          59.2871   87.2975    7.5588 C.ar    1  UNL1       -0.0000
      5 C          60.1393   86.2580    8.2245 C.ar    1  UNL1       -0.0002
      6 C          61.1848   86.6693    9.2183 C.ar    1  UNL1        0.0009
      7 C          62.0370   85.6297    9.8840 C.ar    1  UNL1       -0.0001
      8 C          63.0309   84.8465    9.0786 C.ar    1  UNL1        0.0009
      9 C          63.8830   83.8070    9.7442 C.ar    1  UNL1        0.0114
     10 C          63.7414   83.5506   11.2153 C.ar    1  UNL1        0.0577
     11 CL         64.5936   82.5110   11.8810 Cl      1  UNL1       -0.0822
     12 C          62.7475   84.3338   12.0208 C.ar    1  UNL1        0.0114
     13 C          61.8953   85.3734   11.3551 C.ar    1  UNL1        0.0009
     14 C          62.4236   88.5314   10.5404 C.3     1  UNL1        0.2829
     15 S          62.0922   89.5334   11.6062 S.O     1  UNL1        0.0447
     16 O          60.7896   89.4404   12.3443 O.co2   1  UNL1       -0.6807
     17 C          63.0634   90.6286   11.9341 C.3     1  UNL1        0.3397
     18 N          62.7967   90.1217   14.4683 N.am    1  UNL1       -0.3246
     19 C          63.4814   90.8594   13.3561 C.2     1  UNL1        0.2798
     20 O          64.5841   91.8280   13.6659 O.2     1  UNL1       -0.2697
     21 H          63.0711   90.2732   15.4016 H       1  UNL1        0.1451
     22 H          62.0730   89.4860   14.2649 H       1  UNL1        0.1451
@<TRIPOS>UNITY_ATOM_ATTR
15 1
charge 1
16 1
charge -1
@<TRIPOS>BOND
     1    18    19   am
     2    19    20    2
     3    19    17    1
     4    17    15    1
     5    15    16    2
     6    15    14    1
     7    14     1    1
     8     1     2   ar
     9     2     3   ar
    10     3     4   ar
    11     4     5   ar
    12     5     6   ar
    13     6     7    1
    14     7     8   ar
    15     8     9   ar
    16     9    10   ar
    17    10    11    1
    18    10    12   ar
    19    12    13   ar
    20     6     1   ar
    21    13     7   ar
    22    18    21    1
    23    18    22    1
@<TRIPOS>MOLECULE
*****
 22 23 0 0 0
SMALL
GASTEIGER

@<TRIPOS>ATOM
      1 C          61.2281   88.1201    9.2745 C.ar    1  UNL1        0.0366
      2 C          60.3467   89.0951    8.5518 C.ar    1  UNL1        0.0007
      3 C          59.2835   88.5961    7.6187 C.ar    1  UNL1       -0.0002
      4 C          59.1017   87.1221    7.4084 C.ar    1  UNL1       -0.0000
      5 C          59.9830   86.1471    8.1312 C.ar    1  UNL1       -0.0002
      6 C          61.0463   86.6461    9.0642 C.ar    1  UNL1        0.0009
      7 C          61.9277   85.6710    9.7870 C.ar    1  UNL1       -0.0001
      8 C          61.7830   85.4845   11.2683 C.ar    1  UNL1        0.0009
      9 C          62.6643   84.5095   11.9911 C.ar    1  UNL1        0.0114
     10 C          63.6904   83.7209   11.2326 C.ar    1  UNL1        0.0577
     11 CL         64.5718   82.7458   11.9554 Cl      1  UNL1       -0.0822
     12 C          63.8352   83.9074    9.7513 C.ar    1  UNL1        0.0114
     13 C          62.9537   84.8825    9.0285 C.ar    1  UNL1        0.0009
     14 C          62.2913   88.6191   10.2076 C.3     1  UNL1        0.2829
     15 S          62.0595   89.8639   11.0117 S.O     1  UNL1        0.0447
     16 O          62.6958   91.1563   10.5934 O.co2   1  UNL1       -0.6807
     17 C          61.1915   89.8164   12.2341 C.3     1  UNL1        0.3397
     18 N          58.8783   88.7091   12.6500 N.am    1  UNL1       -0.3246
     19 C          59.6980   89.8358   12.0947 C.2     1  UNL1        0.2798
     20 O          59.0245   90.9820   11.4000 O.2     1  UNL1       -0.2697
     21 H          57.8981   88.7218   12.5585 H       1  UNL1        0.1451
     22 H          59.3204   87.9568   13.1059 H       1  UNL1        0.1451
@<TRIPOS>UNITY_ATOM_ATTR
15 1
charge 1
16 1
charge -1
@<TRIPOS>BOND
     1    18    19   am
     2    19    20    2
     3    19    17    1
     4    17    15    1
     5    15    16    2
     6    15    14    1
     7    14     1    1
     8     1     2   ar
     9     2     3   ar
    10     3     4   ar
    11     4     5   ar
    12     5     6   ar
    13     6     7    1
    14     7     8   ar
    15     8     9   ar
    16     9    10   ar
    17    10    11    1
    18    10    12   ar
    19    12    13   ar
    20     6     1   ar
    21    13     7   ar
    22    18    21    1
    23    18    22    1
@<TRIPOS>MOLECULE
*****
 22 23 0 0 0
SMALL
GASTEIGER

@<TRIPOS>ATOM
      1 C          63.7747   90.6746   12.7149 C.ar    1  UNL1        0.0366
      2 C          64.2392   91.7198   11.7444 C.ar    1  UNL1        0.0007
      3 C          65.5266   92.4501   11.9878 C.ar    1  UNL1       -0.0002
      4 C          66.3495   92.1353   13.2017 C.ar    1  UNL1       -0.0000
      5 C          65.8850   91.0901   14.1722 C.ar    1  UNL1       -0.0002
      6 C          64.5976   90.3598   13.9288 C.ar    1  UNL1        0.0009
      7 C          64.1332   89.3146   14.8994 C.ar    1  UNL1       -0.0001
      8 C          64.4380   87.8679   14.6463 C.ar    1  UNL1        0.0009
      9 C          63.9736   86.8227   15.6168 C.ar    1  UNL1        0.0114
     10 C          63.2043   87.2243   16.8404 C.ar    1  UNL1        0.0577
     11 CL         62.7399   86.1791   17.8109 Cl      1  UNL1       -0.0822
     12 C          62.8996   88.6710   17.0935 C.ar    1  UNL1        0.0114
     13 C          63.3640   89.7162   16.1229 C.ar    1  UNL1        0.0009
     14 C          62.4873   89.9443   12.4715 C.3     1  UNL1        0.2829
     15 S          62.4222   88.8652   11.4316 S.O     1  UNL1        0.0447
     16 O          62.7428   87.4472   11.8011 O.co2   1  UNL1       -0.6807
     17 C          62.0365   89.2041   10.0222 C.3     1  UNL1        0.3397
     18 N          60.1397   89.5037    8.2722 N.am    1  UNL1       -0.3246
     19 C          60.6717   88.8477    9.5118 C.2     1  UNL1        0.2798
     20 O          59.8390   87.8354   10.2410 O.2     1  UNL1       -0.2697
     21 H          59.2440   89.2697    7.9371 H       1  UNL1        0.1451
     22 H          60.6862   90.1681    7.7936 H       1  UNL1        0.1451
@<TRIPOS>UNITY_ATOM_ATTR
15 1
charge 1
16 1
charge -1
@<TRIPOS>BOND
     1    18    19   am
     2    19    20    2
     3    19    17    1
     4    17    15    1
     5    15    16    2
     6    15    14    1
     7    14     1    1
     8     1     2   ar
     9     2     3   ar
    10     3     4   ar
    11     4     5   ar
    12     5     6   ar
    13     6     7    1
    14     7     8   ar
    15     8     9   ar
    16     9    10   ar
    17    10    11    1
    18    10    12   ar
    19    12    13   ar
    20     6     1   ar
    21    13     7   ar
    22    18    21    1
    23    18    22    1
@<TRIPOS>MOLECULE
*****
 22 23 0 0 0
SMALL
GASTEIGER

@<TRIPOS>ATOM
      1 C          63.7020   90.5962   12.5839 C.ar    1  UNL1        0.0366
      2 C          64.1316   91.6193   11.5747 C.ar    1  UNL1        0.0007
      3 C          65.3836   92.4144   11.7990 C.ar    1  UNL1       -0.0002
      4 C          66.2061   92.1863   13.0324 C.ar    1  UNL1       -0.0000
      5 C          65.7765   91.1631   14.0416 C.ar    1  UNL1       -0.0002
      6 C          64.5244   90.3681   13.8174 C.ar    1  UNL1        0.0009
      7 C          64.0948   89.3449   14.8267 C.ar    1  UNL1       -0.0001
      8 C          63.3633   89.7732   16.0642 C.ar    1  UNL1        0.0009
      9 C          62.9337   88.7501   17.0734 C.ar    1  UNL1        0.0114
     10 C          63.2357   87.2986   16.8452 C.ar    1  UNL1        0.0577
     11 CL         62.8061   86.2754   17.8545 Cl      1  UNL1       -0.0822
     12 C          63.9672   86.8702   15.6077 C.ar    1  UNL1        0.0114
     13 C          64.3968   87.8934   14.5984 C.ar    1  UNL1        0.0009
     14 C          62.4499   89.8011   12.3597 C.3     1  UNL1        0.2829
     15 S          61.9242   89.6065   10.9684 S.O     1  UNL1        0.0447
     16 O          62.6914   88.7711    9.9867 O.co2   1  UNL1       -0.6807
     17 C          60.6313   90.2471   10.5587 C.3     1  UNL1        0.3397
     18 N          59.1837   89.1275   12.4029 N.am    1  UNL1       -0.3246
     19 C          59.4841   90.3049   11.5234 C.2     1  UNL1        0.2798
     20 O          58.6372   91.5400   11.6087 O.2     1  UNL1       -0.2697
     21 H          58.4308   89.1654   13.0361 H       1  UNL1        0.1451
     22 H          59.7396   88.3168   12.3470 H       1  UNL1        0.1451
@<TRIPOS>UNITY_ATOM_ATTR
15 1
charge 1
16 1
charge -1
@<TRIPOS>BOND
     1    18    19   am
     2    19    20    2
     3    19    17    1
     4    17    15    1
     5    15    16    2
     6    15    14    1
     7    14     1    1
     8     1     2   ar
     9     2     3   ar
    10     3     4   ar
    11     4     5   ar
    12     5     6   ar
    13     6     7    1
    14     7     8   ar
    15     8     9   ar
    16     9    10   ar
    17    10    11    1
    18    10    12   ar
    19    12    13   ar
    20     6     1   ar
    21    13     7   ar
    22    18    21    1
    23    18    22    1
@<TRIPOS>MOLECULE
*****
 22 23 0 0 0
SMALL
GASTEIGER

@<TRIPOS>ATOM
      1 C          62.7709   84.9658   11.3409 C.ar    1  UNL1        0.0366
      2 C          62.9457   84.4401    9.9469 C.ar    1  UNL1        0.0007
      3 C          63.8877   83.3021    9.6871 C.ar    1  UNL1       -0.0002
      4 C          64.6550   82.6898   10.8212 C.ar    1  UNL1       -0.0000
      5 C          64.4803   83.2154   12.2152 C.ar    1  UNL1       -0.0002
      6 C          63.5382   84.3534   12.4750 C.ar    1  UNL1        0.0009
      7 C          63.3635   84.8791   13.8690 C.ar    1  UNL1       -0.0001
      8 C          62.3604   84.2476   14.7884 C.ar    1  UNL1        0.0009
      9 C          62.1857   84.7732   16.1823 C.ar    1  UNL1        0.0114
     10 C          63.0139   85.9303   16.6570 C.ar    1  UNL1        0.0577
     11 CL         62.8392   86.4559   18.0509 Cl      1  UNL1       -0.0822
     12 C          64.0169   86.5618   15.7376 C.ar    1  UNL1        0.0114
     13 C          64.1917   86.0361   14.3436 C.ar    1  UNL1        0.0009
     14 C          61.8289   86.1038   11.6007 C.3     1  UNL1        0.2829
     15 S          62.1861   87.4902   11.1534 S.O     1  UNL1        0.0447
     16 O          62.8386   88.4425   12.1113 O.co2   1  UNL1       -0.6807
     17 C          61.8909   87.9244    9.7483 C.3     1  UNL1        0.3397
     18 N          61.4475   90.4546   10.1377 N.am    1  UNL1       -0.3246
     19 C          61.0648   89.1517    9.5005 C.2     1  UNL1        0.2798
     20 O          59.8561   89.0761    8.6155 O.2     1  UNL1       -0.2697
     21 H          60.9053   91.2601    9.9751 H       1  UNL1        0.1451
     22 H          62.2408   90.5042   10.7186 H       1  UNL1        0.1451
@<TRIPOS>UNITY_ATOM_ATTR
15 1
charge 1
16 1
charge -1
@<TRIPOS>BOND
     1    18    19   am
     2    19    20    2
     3    19    17    1
     4    17    15    1
     5    15    16    2
     6    15    14    1
     7    14     1    1
     8     1     2   ar
     9     2     3   ar
    10     3     4   ar
    11     4     5   ar
    12     5     6   ar
    13     6     7    1
    14     7     8   ar
    15     8     9   ar
    16     9    10   ar
    17    10    11    1
    18    10    12   ar
    19    12    13   ar
    20     6     1   ar
    21    13     7   ar
    22    18    21    1
    23    18    22    1
@<TRIPOS>MOLECULE
*****
 22 23 0 0 0
SMALL
GASTEIGER

@<TRIPOS>ATOM
      1 C          63.0536   84.3274   12.4772 C.ar    1  UNL1        0.0366
      2 C          63.7351   82.9915   12.5013 C.ar    1  UNL1        0.0007
      3 C          64.2479   82.3880   11.2273 C.ar    1  UNL1       -0.0002
      4 C          64.0790   83.1205    9.9293 C.ar    1  UNL1       -0.0000
      5 C          63.3974   84.4565    9.9053 C.ar    1  UNL1       -0.0002
      6 C          62.8847   85.0599   11.1792 C.ar    1  UNL1        0.0009
      7 C          62.2030   86.3959   11.1552 C.ar    1  UNL1       -0.0001
      8 C          60.8280   86.5259   10.5700 C.ar    1  UNL1        0.0009
      9 C          60.1464   87.8619   10.5459 C.ar    1  UNL1        0.0114
     10 C          60.8398   89.0679   11.1070 C.ar    1  UNL1        0.0577
     11 CL         60.1582   90.4038   11.0829 Cl      1  UNL1       -0.0822
     12 C          62.2148   88.9379   11.6922 C.ar    1  UNL1        0.0114
     13 C          62.8964   87.6019   11.7162 C.ar    1  UNL1        0.0009
     14 C          62.5409   84.9308   13.7512 C.3     1  UNL1        0.2829
     15 S          63.1061   84.4921   15.0695 S.O     1  UNL1        0.0447
     16 O          62.9386   83.0718   15.5221 O.co2   1  UNL1       -0.6807
     17 C          63.8388   85.4737   15.9354 C.3     1  UNL1        0.3397
     18 N          63.2246   87.9288   16.5232 N.am    1  UNL1       -0.3246
     19 C          63.0717   86.4570   16.7690 C.2     1  UNL1        0.2798
     20 O          62.1519   85.9685   17.8485 O.2     1  UNL1       -0.2697
     21 H          62.7212   88.5742   17.0703 H       1  UNL1        0.1451
     22 H          63.8283   88.2494   15.8147 H       1  UNL1        0.1451
@<TRIPOS>UNITY_ATOM_ATTR
15 1
charge 1
16 1
charge -1
@<TRIPOS>BOND
     1    18    19   am
     2    19    20    2
     3    19    17    1
     4    17    15    1
     5    15    16    2
     6    15    14    1
     7    14     1    1
     8     1     2   ar
     9     2     3   ar
    10     3     4   ar
    11     4     5   ar
    12     5     6   ar
    13     6     7    1
    14     7     8   ar
    15     8     9   ar
    16     9    10   ar
    17    10    11    1
    18    10    12   ar
    19    12    13   ar
    20     6     1   ar
    21    13     7   ar
    22    18    21    1
    23    18    22    1
@<TRIPOS>MOLECULE
*****
 22 23 0 0 0
SMALL
GASTEIGER

@<TRIPOS>ATOM
      1 C          62.7667   84.9880   11.3413 C.ar    1  UNL1        0.0366
      2 C          62.9405   84.4696    9.9446 C.ar    1  UNL1        0.0007
      3 C          63.8792   83.3302    9.6788 C.ar    1  UNL1       -0.0002
      4 C          64.6441   82.7092   10.8098 C.ar    1  UNL1       -0.0000
      5 C          64.4704   83.2276   12.2066 C.ar    1  UNL1       -0.0002
      6 C          63.5317   84.3670   12.4723 C.ar    1  UNL1        0.0009
      7 C          63.3580   84.8854   13.8692 C.ar    1  UNL1       -0.0001
      8 C          64.1798   86.0462   14.3460 C.ar    1  UNL1        0.0009
      9 C          64.0061   86.5646   15.7427 C.ar    1  UNL1        0.0114
     10 C          63.0105   85.9223   16.6628 C.ar    1  UNL1        0.0577
     11 CL         62.8369   86.4407   18.0596 Cl      1  UNL1       -0.0822
     12 C          62.1887   84.7616   16.1860 C.ar    1  UNL1        0.0114
     13 C          62.3625   84.2432   14.7891 C.ar    1  UNL1        0.0009
     14 C          61.8281   86.1274   11.6071 C.3     1  UNL1        0.2829
     15 S          61.4506   87.0628   10.4969 S.O     1  UNL1        0.0447
     16 O          60.2988   86.7305    9.5951 O.co2   1  UNL1       -0.6807
     17 C          62.2249   88.3304   10.2883 C.3     1  UNL1        0.3397
     18 N          60.3717   89.7074    9.0969 N.am    1  UNL1       -0.3246
     19 C          61.4995   89.6272   10.0826 C.2     1  UNL1        0.2798
     20 O          61.9018   90.8436   10.8626 O.2     1  UNL1       -0.2697
     21 H          59.8956   90.5585    8.9618 H       1  UNL1        0.1451
     22 H          60.1076   88.9090    8.5849 H       1  UNL1        0.1451
@<TRIPOS>UNITY_ATOM_ATTR
15 1
charge 1
16 1
charge -1
@<TRIPOS>BOND
     1    18    19   am
     2    19    20    2
     3    19    17    1
     4    17    15    1
     5    15    16    2
     6    15    14    1
     7    14     1    1
     8     1     2   ar
     9     2     3   ar
    10     3     4   ar
    11     4     5   ar
    12     5     6   ar
    13     6     7    1
    14     7     8   ar
    15     8     9   ar
    16     9    10   ar
    17    10    11    1
    18    10    12   ar
    19    12    13   ar
    20     6     1   ar
    21    13     7   ar
    22    18    21    1
    23    18    22    1
@<TRIPOS>MOLECULE
*****
 22 23 0 0 0
SMALL
GASTEIGER

@<TRIPOS>ATOM
      1 C          62.9625   86.6169   12.3565 C.ar    1  UNL1        0.0366
      2 C          63.1580   88.1039   12.3325 C.ar    1  UNL1        0.0007
      3 C          63.9082   88.7797   13.4418 C.ar    1  UNL1       -0.0002
      4 C          64.4628   87.9686   14.5750 C.ar    1  UNL1       -0.0000
      5 C          64.2674   86.4816   14.5990 C.ar    1  UNL1       -0.0002
      6 C          63.5172   85.8058   13.4897 C.ar    1  UNL1        0.0009
      7 C          63.3217   84.3187   13.5138 C.ar    1  UNL1       -0.0001
      8 C          62.3130   83.7098   14.4420 C.ar    1  UNL1        0.0009
      9 C          62.1175   82.2228   14.4661 C.ar    1  UNL1        0.0114
     10 C          62.9307   81.3447   13.5619 C.ar    1  UNL1        0.0577
     11 CL         62.7352   79.8577   13.5859 Cl      1  UNL1       -0.0822
     12 C          63.9394   81.9536   12.6336 C.ar    1  UNL1        0.0114
     13 C          64.1349   83.4406   12.6096 C.ar    1  UNL1        0.0009
     14 C          62.2123   85.9411   11.2472 C.3     1  UNL1        0.2829
     15 S          61.2873   86.7361   10.3742 S.O     1  UNL1        0.0447
     16 O          60.2398   87.6130   10.9940 O.co2   1  UNL1       -0.6807
     17 C          61.4096   86.6544    8.8814 C.3     1  UNL1        0.3397
     18 N          58.9497   87.1544    8.2116 N.am    1  UNL1       -0.3246
     19 C          60.2026   86.3465    8.0457 C.2     1  UNL1        0.2798
     20 O          60.2485   85.2307    7.0443 O.2     1  UNL1       -0.2697
     21 H          58.1575   86.9523    7.6631 H       1  UNL1        0.1451
     22 H          58.9195   87.8867    8.8689 H       1  UNL1        0.1451
@<TRIPOS>UNITY_ATOM_ATTR
15 1
charge 1
16 1
charge -1
@<TRIPOS>BOND
     1    18    19   am
     2    19    20    2
     3    19    17    1
     4    17    15    1
     5    15    16    2
     6    15    14    1
     7    14     1    1
     8     1     2   ar
     9     2     3   ar
    10     3     4   ar
    11     4     5   ar
    12     5     6   ar
    13     6     7    1
    14     7     8   ar
    15     8     9   ar
    16     9    10   ar
    17    10    11    1
    18    10    12   ar
    19    12    13   ar
    20     6     1   ar
    21    13     7   ar
    22    18    21    1
    23    18    22    1
@<TRIPOS>MOLECULE
*****
 22 23 0 0 0
SMALL
GASTEIGER

@<TRIPOS>ATOM
      1 C          62.9729   85.0713   11.3576 C.ar    1  UNL1        0.0366
      2 C          63.1341   84.5118    9.9753 C.ar    1  UNL1        0.0007
      3 C          63.8328   83.1998    9.7739 C.ar    1  UNL1       -0.0002
      4 C          64.3702   82.4473   10.9549 C.ar    1  UNL1       -0.0000
      5 C          64.2090   83.0067   12.3373 C.ar    1  UNL1       -0.0002
      6 C          63.5104   84.3187   12.5386 C.ar    1  UNL1        0.0009
      7 C          63.3492   84.8782   13.9211 C.ar    1  UNL1       -0.0001
      8 C          62.3211   84.3013   14.8485 C.ar    1  UNL1        0.0009
      9 C          62.1599   84.8607   16.2309 C.ar    1  UNL1        0.0114
     10 C          63.0268   85.9972   16.6859 C.ar    1  UNL1        0.0577
     11 CL         62.8656   86.5566   18.0683 Cl      1  UNL1       -0.0822
     12 C          64.0549   86.5741   15.7585 C.ar    1  UNL1        0.0114
     13 C          64.2161   86.0146   14.3760 C.ar    1  UNL1        0.0009
     14 C          62.2743   86.3832   11.5590 C.3     1  UNL1        0.2829
     15 S          61.6502   87.0877   10.3909 S.O     1  UNL1        0.0447
     16 O          62.4233   88.1360    9.6469 O.co2   1  UNL1       -0.6807
     17 C          60.2531   86.7438    9.9668 C.3     1  UNL1        0.3397
     18 N          60.8858   85.9198    7.5855 N.am    1  UNL1       -0.3246
     19 C          59.9241   86.6060    8.5098 C.2     1  UNL1        0.2798
     20 O          58.6335   87.1542    7.9772 O.2     1  UNL1       -0.2697
     21 H          60.6699   85.8293    6.6292 H       1  UNL1        0.1451
     22 H          61.7329   85.5600    7.9350 H       1  UNL1        0.1451
@<TRIPOS>UNITY_ATOM_ATTR
15 1
charge 1
16 1
charge -1
@<TRIPOS>BOND
     1    18    19   am
     2    19    20    2
     3    19    17    1
     4    17    15    1
     5    15    16    2
     6    15    14    1
     7    14     1    1
     8     1     2   ar
     9     2     3   ar
    10     3     4   ar
    11     4     5   ar
    12     5     6   ar
    13     6     7    1
    14     7     8   ar
    15     8     9   ar
    16     9    10   ar
    17    10    11    1
    18    10    12   ar
    19    12    13   ar
    20     6     1   ar
    21    13     7   ar
    22    18    21    1
    23    18    22    1
