@<TRIPOS>MOLECULE
*****
 33 36 0 0 0
SMALL
GASTEIGER

@<TRIPOS>ATOM
      1 O          59.9171   86.2100    9.3178 O.3     1  UNL1       -0.3755
      2 C          60.8602   87.1034   10.0677 C.3     1  UNL1        0.1932
      3 H          60.4241   85.6061    8.7529 H       1  UNL1        0.2110
      4 C          61.8043   85.9523   10.2517 C.ar    1  UNL1        0.0368
      5 C          62.0082   85.3600   11.6147 C.ar    1  UNL1        0.0028
      6 C          62.9522   84.2090   11.7987 C.ar    1  UNL1        0.0295
      7 C          63.6922   83.6502   10.6197 C.ar    1  UNL1        0.1424
      8 F          64.6363   82.4990   10.8037 F       1  UNL1       -0.2041
      9 C          63.4883   84.2424    9.2568 C.ar    1  UNL1        0.0590
     10 C          62.5443   85.3935    9.0727 C.ar    1  UNL1        0.1408
     11 F          62.3404   85.9857    7.7098 F       1  UNL1       -0.2043
     12 C          61.8033   87.9968   10.8176 C.3     1  UNL1        0.3254
     13 F          62.9974   88.1025    9.9159 F       1  UNL1       -0.1949
     14 F          60.8079   88.1106   11.9339 F       1  UNL1       -0.1949
     15 C          62.7465   88.8902   11.5675 C.ar    1  UNL1        0.1218
     16 C          63.1213   90.2281   11.0024 C.ar    1  UNL1        0.0202
     17 C          64.0645   91.1215   11.7523 C.ar    1  UNL1        0.0030
     18 C          64.6328   90.6769   13.0673 C.ar    1  UNL1        0.0207
     19 C          64.2580   89.3389   13.6324 C.ar    1  UNL1        0.0987
     20 N          63.3149   88.4456   12.8825 N.ar    1  UNL1       -0.2427
     21 C          65.5760   91.5703   13.8172 C.ar    1  UNL1        0.0207
     22 C          65.4051   91.7703   15.2939 C.ar    1  UNL1        0.0040
     23 C          66.3483   92.6637   16.0439 C.ar    1  UNL1        0.0308
     24 C          67.4623   93.3570   15.3171 C.ar    1  UNL1        0.1384
     25 CL         68.4055   94.2503   16.0670 Cl      1  UNL1       -0.0613
     26 N          67.6332   93.1569   13.8403 N.ar    1  UNL1       -0.2324
     27 C          66.6901   92.2635   13.0904 C.ar    1  UNL1        0.0998
     28 C          59.9162   88.2544    9.8838 C.3     1  UNL1        0.1679
     29 N          59.6100   88.7604    8.5052 N.ar    1  UNL1       -0.2078
     30 C          60.2108   89.9725    7.8573 C.ar    1  UNL1        0.2216
     31 N          59.6214   90.1043    6.4842 N.ar    1  UNL1       -0.1048
     32 N          58.6564   88.9736    6.2836 N.ar    1  UNL1       -0.0226
     33 N          58.6493   88.1431    7.5326 N.ar    1  UNL1       -0.0428
@<TRIPOS>BOND
     1     1     2    1
     2     2    28    1
     3    28    29    1
     4    29    30   ar
     5    30    31   ar
     6    31    32   ar
     7    32    33   ar
     8     2     4    1
     9     4     5   ar
    10     5     6   ar
    11     6     7   ar
    12     7     8    1
    13     7     9   ar
    14     9    10   ar
    15    10    11    1
    16     2    12    1
    17    12    13    1
    18    12    14    1
    19    12    15    1
    20    15    16   ar
    21    16    17   ar
    22    17    18   ar
    23    18    21    1
    24    21    22   ar
    25    22    23   ar
    26    23    24   ar
    27    24    25    1
    28    24    26   ar
    29    26    27   ar
    30    18    19   ar
    31    19    20   ar
    32    33    29   ar
    33    10     4   ar
    34    20    15   ar
    35    27    21   ar
    36     1     3    1
@<TRIPOS>MOLECULE
*****
 33 36 0 0 0
SMALL
GASTEIGER

@<TRIPOS>ATOM
      1 O          60.2290   86.1959    9.0028 O.3     1  UNL1       -0.3755
      2 C          61.1287   87.0869    9.8068 C.3     1  UNL1        0.1932
      3 H          60.7593   85.5129    8.5632 H       1  UNL1        0.2110
      4 C          61.9473   85.8964   10.2102 C.ar    1  UNL1        0.0368
      5 C          61.8281   85.3396   11.5979 C.ar    1  UNL1        0.0028
      6 C          62.6466   84.1491   12.0012 C.ar    1  UNL1        0.0295
      7 C          63.5843   83.5154   11.0169 C.ar    1  UNL1        0.1424
      8 F          64.4029   82.3249   11.4202 F       1  UNL1       -0.2041
      9 C          63.7035   84.0722    9.6291 C.ar    1  UNL1        0.0590
     10 C          62.8850   85.2627    9.2258 C.ar    1  UNL1        0.1408
     11 F          63.0042   85.8195    7.8381 F       1  UNL1       -0.2043
     12 C          62.0283   87.9780   10.6109 C.3     1  UNL1        0.3254
     13 F          61.7727   87.5660   12.0305 F       1  UNL1       -0.1949
     14 F          62.5161   88.6247    9.3485 F       1  UNL1       -0.1949
     15 C          62.9280   88.8690   11.4151 C.ar    1  UNL1        0.1218
     16 C          63.2997   90.2259   10.8948 C.ar    1  UNL1        0.0202
     17 C          64.1994   91.1170   11.6989 C.ar    1  UNL1        0.0030
     18 C          64.7274   90.6511   13.0234 C.ar    1  UNL1        0.0207
     19 C          64.3557   89.2942   13.5437 C.ar    1  UNL1        0.0987
     20 N          63.4561   88.4032   12.7395 N.ar    1  UNL1       -0.2427
     21 C          65.6271   91.5421   13.8275 C.ar    1  UNL1        0.0207
     22 C          65.3755   91.7355   15.2936 C.ar    1  UNL1        0.0040
     23 C          66.2752   92.6265   16.0978 C.ar    1  UNL1        0.0308
     24 C          67.4264   93.3241   15.4359 C.ar    1  UNL1        0.1384
     25 CL         68.3261   94.2151   16.2401 Cl      1  UNL1       -0.0613
     26 N          67.6779   93.1307   13.9698 N.ar    1  UNL1       -0.2324
     27 C          66.7783   92.2397   13.1657 C.ar    1  UNL1        0.0998
     28 C          60.3101   88.2774    9.4035 C.3     1  UNL1        0.1679
     29 N          59.7270   89.1769   10.4527 N.ar    1  UNL1       -0.2078
     30 C          59.1037   88.7368   11.7441 C.ar    1  UNL1        0.2216
     31 N          58.6563   89.9624   12.4843 N.ar    1  UNL1       -0.1048
     32 N          59.0031   91.1600   11.6503 N.ar    1  UNL1       -0.0226
     33 N          59.6648   90.6745   10.3947 N.ar    1  UNL1       -0.0428
@<TRIPOS>BOND
     1     1     2    1
     2     2    28    1
     3    28    29    1
     4    29    30   ar
     5    30    31   ar
     6    31    32   ar
     7    32    33   ar
     8     2     4    1
     9     4     5   ar
    10     5     6   ar
    11     6     7   ar
    12     7     8    1
    13     7     9   ar
    14     9    10   ar
    15    10    11    1
    16     2    12    1
    17    12    13    1
    18    12    14    1
    19    12    15    1
    20    15    16   ar
    21    16    17   ar
    22    17    18   ar
    23    18    21    1
    24    21    22   ar
    25    22    23   ar
    26    23    24   ar
    27    24    25    1
    28    24    26   ar
    29    26    27   ar
    30    18    19   ar
    31    19    20   ar
    32    33    29   ar
    33    10     4   ar
    34    20    15   ar
    35    27    21   ar
    36     1     3    1
@<TRIPOS>MOLECULE
*****
 33 36 0 0 0
SMALL
GASTEIGER

@<TRIPOS>ATOM
      1 O          64.8547   83.2798   15.2070 O.3     1  UNL1       -0.3755
      2 C          64.1376   84.0521   14.1397 C.3     1  UNL1        0.1932
      3 H          65.3570   83.8922   15.7670 H       1  UNL1        0.2110
      4 C          63.8390   85.1405   15.1278 C.ar    1  UNL1        0.0368
      5 C          64.4829   86.4869   14.9778 C.ar    1  UNL1        0.0028
      6 C          64.1845   87.5753   15.9659 C.ar    1  UNL1        0.0295
      7 C          63.2421   87.3172   17.1040 C.ar    1  UNL1        0.1424
      8 F          62.9436   88.4055   18.0922 F       1  UNL1       -0.2041
      9 C          62.5982   85.9707   17.2540 C.ar    1  UNL1        0.0590
     10 C          62.8967   84.8824   16.2659 C.ar    1  UNL1        0.1408
     11 F          62.2528   83.5359   16.4159 F       1  UNL1       -0.2043
     12 C          63.4204   84.8244   13.0723 C.3     1  UNL1        0.3254
     13 F          62.0557   85.0593   13.6491 F       1  UNL1       -0.1949
     14 F          64.6479   84.7750   12.2118 F       1  UNL1       -0.1949
     15 C          62.7032   85.5968   12.0050 C.ar    1  UNL1        0.1218
     16 C          62.0777   84.8746   10.8486 C.ar    1  UNL1        0.0202
     17 C          61.3605   85.6469    9.7813 C.ar    1  UNL1        0.0030
     18 C          61.2688   87.1414    9.8704 C.ar    1  UNL1        0.0207
     19 C          61.8943   87.8636   11.0268 C.ar    1  UNL1        0.0987
     20 N          62.6114   87.0913   12.0941 N.ar    1  UNL1       -0.2427
     21 C          60.5516   87.9138    8.8031 C.ar    1  UNL1        0.0207
     22 C          59.8440   87.1866    7.6984 C.ar    1  UNL1        0.0040
     23 C          59.1268   87.9590    6.6310 C.ar    1  UNL1        0.0308
     24 C          59.1172   89.4585    6.6685 C.ar    1  UNL1        0.1384
     25 CL         58.4000   90.2308    5.6012 Cl      1  UNL1       -0.0613
     26 N          59.8249   90.1856    7.7733 N.ar    1  UNL1       -0.2324
     27 C          60.5420   89.4133    8.8406 C.ar    1  UNL1        0.0998
     28 C          64.4361   82.9638   13.1516 C.3     1  UNL1        0.1679
     29 N          63.6184   81.7063   13.1511 N.ar    1  UNL1       -0.2078
     30 C          63.0460   81.0272   11.9423 C.ar    1  UNL1        0.2216
     31 N          62.3033   79.8083   12.4034 N.ar    1  UNL1       -0.1048
     32 N          62.4167   79.7339   13.8972 N.ar    1  UNL1       -0.0226
     33 N          63.2295   80.9070   14.3593 N.ar    1  UNL1       -0.0428
@<TRIPOS>BOND
     1     1     2    1
     2     2    28    1
     3    28    29    1
     4    29    30   ar
     5    30    31   ar
     6    31    32   ar
     7    32    33   ar
     8     2     4    1
     9     4     5   ar
    10     5     6   ar
    11     6     7   ar
    12     7     8    1
    13     7     9   ar
    14     9    10   ar
    15    10    11    1
    16     2    12    1
    17    12    13    1
    18    12    14    1
    19    12    15    1
    20    15    16   ar
    21    16    17   ar
    22    17    18   ar
    23    18    21    1
    24    21    22   ar
    25    22    23   ar
    26    23    24   ar
    27    24    25    1
    28    24    26   ar
    29    26    27   ar
    30    18    19   ar
    31    19    20   ar
    32    33    29   ar
    33    10     4   ar
    34    20    15   ar
    35    27    21   ar
    36     1     3    1
@<TRIPOS>MOLECULE
*****
 33 36 0 0 0
SMALL
GASTEIGER

@<TRIPOS>ATOM
      1 O          63.4198   96.1557    0.3853 O.3     1  UNL1       -0.3755
      2 C          62.3428   95.4423   -0.3769 C.3     1  UNL1        0.1932
      3 H          63.2256   96.1143    1.3348 H       1  UNL1        0.2110
      4 C          62.2826   94.3914    0.6918 C.ar    1  UNL1        0.0368
      5 C          63.4290   93.4415    0.8749 C.ar    1  UNL1        0.0028
      6 C          63.3689   92.3907    1.9436 C.ar    1  UNL1        0.0295
      7 C          62.1624   92.2897    2.8290 C.ar    1  UNL1        0.1424
      8 F          62.1022   91.2388    3.8977 F       1  UNL1       -0.2041
      9 C          61.0160   93.2396    2.6459 C.ar    1  UNL1        0.0590
     10 C          61.0761   94.2904    1.5772 C.ar    1  UNL1        0.1408
     11 F          59.9298   95.2403    1.3941 F       1  UNL1       -0.2043
     12 C          61.2658   94.7289   -1.1392 C.3     1  UNL1        0.3254
     13 F          61.7881   93.3300   -1.2820 F       1  UNL1       -0.1949
     14 F          60.4590   95.9927   -1.1820 F       1  UNL1       -0.1949
     15 C          60.1888   94.0154   -1.9015 C.ar    1  UNL1        0.1218
     16 C          59.2813   93.0529   -1.1943 C.ar    1  UNL1        0.0202
     17 C          58.2043   92.3394   -1.9566 C.ar    1  UNL1        0.0030
     18 C          58.0348   92.5885   -3.4260 C.ar    1  UNL1        0.0207
     19 C          58.9423   93.5510   -4.1332 C.ar    1  UNL1        0.0987
     20 N          60.0193   94.2645   -3.3709 N.ar    1  UNL1       -0.2427
     21 C          56.9578   91.8750   -4.1883 C.ar    1  UNL1        0.0207
     22 C          56.7109   92.2107   -5.6292 C.ar    1  UNL1        0.0040
     23 C          55.6338   91.4972   -6.3916 C.ar    1  UNL1        0.0308
     24 C          54.8039   90.4481   -5.7130 C.ar    1  UNL1        0.1384
     25 CL         53.7269   89.7347   -6.4752 Cl      1  UNL1       -0.0613
     26 N          55.0509   90.1125   -4.2720 N.ar    1  UNL1       -0.2324
     27 C          56.1279   90.8259   -3.5097 C.ar    1  UNL1        0.0998
     28 C          62.4030   96.4932   -1.4455 C.3     1  UNL1        0.1679
     29 N          63.4804   96.4420   -2.4879 N.ar    1  UNL1       -0.2078
     30 C          63.2746   96.2355   -3.9593 C.ar    1  UNL1        0.2216
     31 N          64.6198   96.2542   -4.6227 N.ar    1  UNL1       -0.1048
     32 N          65.6571   96.4724   -3.5613 N.ar    1  UNL1       -0.0226
     33 N          64.9529   96.5885   -2.2420 N.ar    1  UNL1       -0.0428
@<TRIPOS>BOND
     1     1     2    1
     2     2    28    1
     3    28    29    1
     4    29    30   ar
     5    30    31   ar
     6    31    32   ar
     7    32    33   ar
     8     2     4    1
     9     4     5   ar
    10     5     6   ar
    11     6     7   ar
    12     7     8    1
    13     7     9   ar
    14     9    10   ar
    15    10    11    1
    16     2    12    1
    17    12    13    1
    18    12    14    1
    19    12    15    1
    20    15    16   ar
    21    16    17   ar
    22    17    18   ar
    23    18    21    1
    24    21    22   ar
    25    22    23   ar
    26    23    24   ar
    27    24    25    1
    28    24    26   ar
    29    26    27   ar
    30    18    19   ar
    31    19    20   ar
    32    33    29   ar
    33    10     4   ar
    34    20    15   ar
    35    27    21   ar
    36     1     3    1
@<TRIPOS>MOLECULE
*****
 33 36 0 0 0
SMALL
GASTEIGER

@<TRIPOS>ATOM
      1 O          64.5058   83.1294   15.5491 O.3     1  UNL1       -0.3755
      2 C          63.8550   83.9080   14.4444 C.3     1  UNL1        0.1932
      3 H          65.0361   83.7282   16.0978 H       1  UNL1        0.2110
      4 C          63.6088   85.0452   15.3911 C.ar    1  UNL1        0.0368
      5 C          62.6314   84.8851   16.5176 C.ar    1  UNL1        0.0028
      6 C          62.3851   86.0223   17.4642 C.ar    1  UNL1        0.0295
      7 C          63.1163   87.3196   17.2844 C.ar    1  UNL1        0.1424
      8 F          62.8701   88.4568   18.2311 F       1  UNL1       -0.2041
      9 C          64.0938   87.4797   16.1579 C.ar    1  UNL1        0.0590
     10 C          64.3400   86.3425   15.2113 C.ar    1  UNL1        0.1408
     11 F          65.3174   86.5026   14.0848 F       1  UNL1       -0.2043
     12 C          63.2042   84.6865   13.3398 C.3     1  UNL1        0.3254
     13 F          64.2654   84.7736   12.2831 F       1  UNL1       -0.1949
     14 F          61.9483   84.7910   14.1533 F       1  UNL1       -0.1949
     15 C          62.5534   85.4651   12.2351 C.ar    1  UNL1        0.1218
     16 C          62.5745   86.9647   12.2612 C.ar    1  UNL1        0.0202
     17 C          61.9237   87.7433   11.1565 C.ar    1  UNL1        0.0030
     18 C          61.2519   87.0222   10.0257 C.ar    1  UNL1        0.0207
     19 C          61.2309   85.5226    9.9996 C.ar    1  UNL1        0.0987
     20 N          61.8816   84.7440   11.1043 N.ar    1  UNL1       -0.2427
     21 C          60.6011   87.8008    8.9210 C.ar    1  UNL1        0.0207
     22 C          60.6907   89.2980    8.9050 C.ar    1  UNL1        0.0040
     23 C          60.0399   90.0766    7.8003 C.ar    1  UNL1        0.0308
     24 C          59.2996   89.3579    6.7116 C.ar    1  UNL1        0.1384
     25 CL         58.6489   90.1364    5.6069 Cl      1  UNL1       -0.0613
     26 N          59.2101   87.8606    6.7275 N.ar    1  UNL1       -0.2324
     27 C          59.8608   87.0821    7.8322 C.ar    1  UNL1        0.0998
     28 C          64.1012   82.7707   13.4979 C.3     1  UNL1        0.1679
     29 N          63.1392   81.6213   13.4400 N.ar    1  UNL1       -0.2078
     30 C          61.9072   81.4596   14.2803 C.ar    1  UNL1        0.2216
     31 N          61.2468   80.1702   13.8914 N.ar    1  UNL1       -0.1048
     32 N          62.0707   79.5349   12.8108 N.ar    1  UNL1       -0.0226
     33 N          63.2402   80.4318   12.5319 N.ar    1  UNL1       -0.0428
@<TRIPOS>BOND
     1     1     2    1
     2     2    28    1
     3    28    29    1
     4    29    30   ar
     5    30    31   ar
     6    31    32   ar
     7    32    33   ar
     8     2     4    1
     9     4     5   ar
    10     5     6   ar
    11     6     7   ar
    12     7     8    1
    13     7     9   ar
    14     9    10   ar
    15    10    11    1
    16     2    12    1
    17    12    13    1
    18    12    14    1
    19    12    15    1
    20    15    16   ar
    21    16    17   ar
    22    17    18   ar
    23    18    21    1
    24    21    22   ar
    25    22    23   ar
    26    23    24   ar
    27    24    25    1
    28    24    26   ar
    29    26    27   ar
    30    18    19   ar
    31    19    20   ar
    32    33    29   ar
    33    10     4   ar
    34    20    15   ar
    35    27    21   ar
    36     1     3    1
@<TRIPOS>MOLECULE
*****
 33 36 0 0 0
SMALL
GASTEIGER

@<TRIPOS>ATOM
      1 O          64.9924   94.2427   -0.5066 O.3     1  UNL1       -0.3755
      2 C          63.5482   94.4592   -0.8490 C.3     1  UNL1        0.1932
      3 H          65.3432   93.5082   -1.0341 H       1  UNL1        0.2110
      4 C          63.8490   94.1829   -2.2924 C.ar    1  UNL1        0.0368
      5 C          63.5096   92.8482   -2.8870 C.ar    1  UNL1        0.0028
      6 C          63.8104   92.5719   -4.3303 C.ar    1  UNL1        0.0295
      7 C          64.4505   93.6302   -5.1789 C.ar    1  UNL1        0.1424
      8 F          64.7513   93.3539   -6.6223 F       1  UNL1       -0.2041
      9 C          64.7898   94.9648   -4.5843 C.ar    1  UNL1        0.0590
     10 C          64.4891   95.2412   -3.1410 C.ar    1  UNL1        0.1408
     11 F          64.8284   96.5758   -2.5463 F       1  UNL1       -0.2043
     12 C          62.1039   94.6756   -1.1913 C.3     1  UNL1        0.3254
     13 F          61.5287   93.2907   -1.2304 F       1  UNL1       -0.1949
     14 F          62.3366   96.1567   -1.2365 F       1  UNL1       -0.1949
     15 C          60.6596   94.8920   -1.5337 C.ar    1  UNL1        0.1218
     16 C          60.1746   94.6431   -2.9311 C.ar    1  UNL1        0.0202
     17 C          58.7303   94.8595   -3.2735 C.ar    1  UNL1        0.0030
     18 C          57.7710   95.3247   -2.2184 C.ar    1  UNL1        0.0207
     19 C          58.2560   95.5736   -0.8209 C.ar    1  UNL1        0.0987
     20 N          59.7003   95.3572   -0.4786 N.ar    1  UNL1       -0.2427
     21 C          56.3267   95.5411   -2.5607 C.ar    1  UNL1        0.0207
     22 C          55.2617   95.2265   -1.5524 C.ar    1  UNL1        0.0040
     23 C          53.8174   95.4429   -1.8947 C.ar    1  UNL1        0.0308
     24 C          53.4381   95.9739   -3.2453 C.ar    1  UNL1        0.1384
     25 CL         51.9938   96.1903   -3.5876 Cl      1  UNL1       -0.0613
     26 N          54.5032   96.2885   -4.2537 N.ar    1  UNL1       -0.2324
     27 C          55.9474   96.0721   -3.9114 C.ar    1  UNL1        0.0998
     28 C          63.2474   94.7354    0.5943 C.3     1  UNL1        0.1679
     29 N          63.0056   93.5975    1.5412 N.ar    1  UNL1       -0.2078
     30 C          61.6990   93.2564    2.1944 C.ar    1  UNL1        0.2216
     31 N          61.9138   92.0489    3.0580 N.ar    1  UNL1       -0.1048
     32 N          63.3531   91.6437    2.9386 N.ar    1  UNL1       -0.0226
     33 N          64.0278   92.6008    2.0012 N.ar    1  UNL1       -0.0428
@<TRIPOS>BOND
     1     1     2    1
     2     2    28    1
     3    28    29    1
     4    29    30   ar
     5    30    31   ar
     6    31    32   ar
     7    32    33   ar
     8     2     4    1
     9     4     5   ar
    10     5     6   ar
    11     6     7   ar
    12     7     8    1
    13     7     9   ar
    14     9    10   ar
    15    10    11    1
    16     2    12    1
    17    12    13    1
    18    12    14    1
    19    12    15    1
    20    15    16   ar
    21    16    17   ar
    22    17    18   ar
    23    18    21    1
    24    21    22   ar
    25    22    23   ar
    26    23    24   ar
    27    24    25    1
    28    24    26   ar
    29    26    27   ar
    30    18    19   ar
    31    19    20   ar
    32    33    29   ar
    33    10     4   ar
    34    20    15   ar
    35    27    21   ar
    36     1     3    1
@<TRIPOS>MOLECULE
*****
 33 36 0 0 0
SMALL
GASTEIGER

@<TRIPOS>ATOM
      1 O          64.1886   93.9312   -2.3295 O.3     1  UNL1       -0.3755
      2 C          62.7157   94.2031   -2.4107 C.3     1  UNL1        0.1932
      3 H          64.5159   94.1826   -1.4516 H       1  UNL1        0.2110
      4 C          62.5510   93.7329   -0.9958 C.ar    1  UNL1        0.0368
      5 C          61.6642   92.5615   -0.6932 C.ar    1  UNL1        0.0028
      6 C          61.4995   92.0912    0.7216 C.ar    1  UNL1        0.0295
      7 C          62.2214   92.7924    1.8338 C.ar    1  UNL1        0.1424
      8 F          62.0567   92.3222    3.2487 F       1  UNL1       -0.2041
      9 C          63.1082   93.9638    1.5312 C.ar    1  UNL1        0.0590
     10 C          63.2729   94.4340    0.1164 C.ar    1  UNL1        0.1408
     11 F          64.1597   95.6054   -0.1861 F       1  UNL1       -0.2043
     12 C          61.2428   94.4750   -2.4919 C.3     1  UNL1        0.3254
     13 F          60.6997   93.3061   -3.2594 F       1  UNL1       -0.1949
     14 F          61.4352   95.7473   -1.7212 F       1  UNL1       -0.1949
     15 C          59.7699   94.7468   -2.5731 C.ar    1  UNL1        0.1218
     16 C          58.9769   94.9637   -1.3184 C.ar    1  UNL1        0.0202
     17 C          57.5039   95.2355   -1.3997 C.ar    1  UNL1        0.0030
     18 C          56.8240   95.2905   -2.7356 C.ar    1  UNL1        0.0207
     19 C          57.6170   95.0736   -3.9903 C.ar    1  UNL1        0.0987
     20 N          59.0899   94.8018   -3.9090 N.ar    1  UNL1       -0.2427
     21 C          55.3511   95.5623   -2.8168 C.ar    1  UNL1        0.0207
     22 C          54.5181   95.5599   -1.5695 C.ar    1  UNL1        0.0040
     23 C          53.0451   95.8317   -1.6507 C.ar    1  UNL1        0.0308
     24 C          52.4052   96.1060   -2.9793 C.ar    1  UNL1        0.1384
     25 CL         50.9323   96.3778   -3.0606 Cl      1  UNL1       -0.0613
     26 N          53.2383   96.1084   -4.2268 N.ar    1  UNL1       -0.2324
     27 C          54.7112   95.8366   -4.1455 C.ar    1  UNL1        0.0998
     28 C          62.8805   94.6733   -3.8255 C.3     1  UNL1        0.1679
     29 N          63.3402   93.7163   -4.8851 N.ar    1  UNL1       -0.2078
     30 C          63.2703   93.9411   -6.3665 C.ar    1  UNL1        0.2216
     31 N          63.8374   92.7303   -7.0464 N.ar    1  UNL1       -0.1048
     32 N          64.2577   91.7571   -5.9852 N.ar    1  UNL1       -0.0226
     33 N          63.9504   92.3665   -4.6495 N.ar    1  UNL1       -0.0428
@<TRIPOS>BOND
     1     1     2    1
     2     2    28    1
     3    28    29    1
     4    29    30   ar
     5    30    31   ar
     6    31    32   ar
     7    32    33   ar
     8     2     4    1
     9     4     5   ar
    10     5     6   ar
    11     6     7   ar
    12     7     8    1
    13     7     9   ar
    14     9    10   ar
    15    10    11    1
    16     2    12    1
    17    12    13    1
    18    12    14    1
    19    12    15    1
    20    15    16   ar
    21    16    17   ar
    22    17    18   ar
    23    18    21    1
    24    21    22   ar
    25    22    23   ar
    26    23    24   ar
    27    24    25    1
    28    24    26   ar
    29    26    27   ar
    30    18    19   ar
    31    19    20   ar
    32    33    29   ar
    33    10     4   ar
    34    20    15   ar
    35    27    21   ar
    36     1     3    1
