@<TRIPOS>MOLECULE
*****
 29 32 0 0 0
SMALL
GASTEIGER

@<TRIPOS>ATOM
      1 C          62.2983   89.4417   12.0798 C.2     1  UNL1        0.2551
      2 O          60.8270   89.5974   12.3272 O.2     1  UNL1       -0.2696
      3 N          62.7812   88.6160   10.9244 N.am    1  UNL1       -0.2656
      4 H          63.7469   88.5138   10.7621 H       1  UNL1        0.1566
      5 C          65.5243   92.9856   11.2141 C.ar    1  UNL1        0.1318
      6 C          66.3223   93.3559   12.4290 C.ar    1  UNL1        0.0548
      7 C          66.0787   92.6504   13.7301 C.ar    1  UNL1        0.1049
      8 N          65.0370   91.5746   13.8163 N.ar    1  UNL1       -0.2104
      9 N          64.5778   90.7109   14.9535 N.ar    1  UNL1       -0.1619
     10 C          63.4959   89.8068   14.4414 C.ar    1  UNL1        0.1281
     11 C          63.2865   90.1117   12.9877 C.ar    1  UNL1        0.1103
     12 C          64.2390   91.2043   12.6014 C.ar    1  UNL1        0.1710
     13 N          64.4827   91.9098   11.3003 N.ar    1  UNL1       -0.2118
     14 C          67.1617   94.0857    9.5234 C.3     1  UNL1        0.1096
     15 N          65.7680   93.6911    9.9130 N.pl3   1  UNL1       -0.3166
     16 H          65.0132   93.8952    9.3148 H       1  UNL1        0.1482
     17 C          61.7930   87.9459   10.0164 C.ar    1  UNL1        0.1370
     18 C          60.7708   88.6364    9.1630 C.ar    1  UNL1        0.0509
     19 C          59.9996   87.5850    8.4215 C.ar    1  UNL1        0.0822
     20 C          58.8794   87.8308    7.4546 C.3     1  UNL1        0.0540
     21 N          60.5451   86.2449    8.8167 N.ar    1  UNL1       -0.1683
     22 N          61.6536   86.4679    9.8024 N.ar    1  UNL1       -0.2162
     23 C          62.4778   85.4003   10.4588 C.ar    1  UNL1        0.0850
     24 C          63.2886   84.4570    9.6204 C.ar    1  UNL1        0.0193
     25 C          64.1127   83.3894   10.2768 C.ar    1  UNL1        0.0024
     26 C          64.1262   83.2651   11.7716 C.ar    1  UNL1        0.0115
     27 C          63.3154   84.2084   12.6100 C.ar    1  UNL1        0.0592
     28 CL         63.3289   84.0841   14.1048 Cl      1  UNL1       -0.0822
     29 C          62.4912   85.2760   11.9535 C.ar    1  UNL1        0.0306
@<TRIPOS>BOND
     1    14    15    1
     2    15     5    1
     3     5     6   ar
     4     6     7   ar
     5     7     8   ar
     6     8     9   ar
     7     9    10   ar
     8    10    11   ar
     9    11     1    1
    10     1     2    2
    11     1     3   am
    12     3    17    1
    13    17    18   ar
    14    18    19   ar
    15    19    20    1
    16    19    21   ar
    17    21    22   ar
    18    22    23    1
    19    23    24   ar
    20    24    25   ar
    21    25    26   ar
    22    26    27   ar
    23    27    28    1
    24    27    29   ar
    25    11    12   ar
    26    12    13   ar
    27    13     5   ar
    28    12     8   ar
    29    22    17   ar
    30    29    23   ar
    31    15    16    1
    32     3     4    1
@<TRIPOS>MOLECULE
*****
 29 32 0 0 0
SMALL
GASTEIGER

@<TRIPOS>ATOM
      1 C          62.7497   85.2375    9.9957 C.2     1  UNL1        0.2551
      2 O          63.1858   85.4448    8.5755 O.2     1  UNL1       -0.2696
      3 N          61.7461   86.1645   10.6150 N.am    1  UNL1       -0.2656
      4 H          61.4599   86.0284   11.5471 H       1  UNL1        0.1566
      5 C          62.5742   84.3122   14.7737 C.ar    1  UNL1        0.1318
      6 C          63.2876   83.0470   15.1483 C.ar    1  UNL1        0.0548
      7 C          63.9552   82.2208   14.0892 C.ar    1  UNL1        0.1049
      8 N          63.9095   82.6597   12.6556 N.ar    1  UNL1       -0.2104
      9 N          64.4715   82.0561   11.4027 N.ar    1  UNL1       -0.1619
     10 C          64.1054   82.9483   10.2538 C.ar    1  UNL1        0.1281
     11 C          63.3172   84.1033   10.7966 C.ar    1  UNL1        0.1103
     12 C          63.1962   83.9249   12.2811 C.ar    1  UNL1        0.1710
     13 N          62.5285   84.7512   13.3401 N.ar    1  UNL1       -0.2118
     14 C          62.7308   85.8100   16.8908 C.3     1  UNL1        0.1096
     15 N          61.9065   85.1384   15.8328 N.pl3   1  UNL1       -0.3166
     16 H          60.9273   85.2400   15.8334 H       1  UNL1        0.1482
     17 C          61.1785   87.2987    9.8142 C.ar    1  UNL1        0.1370
     18 C          60.2068   87.1762    8.6780 C.ar    1  UNL1        0.0509
     19 C          59.9107   88.5564    8.1705 C.ar    1  UNL1        0.0822
     20 C          58.9879   88.9006    7.0391 C.3     1  UNL1        0.0540
     21 N          60.6994   89.5318    8.9930 N.ar    1  UNL1       -0.1683
     22 N          61.4830   88.7545   10.0088 N.ar    1  UNL1       -0.2162
     23 C          62.4085   89.3317   11.0385 C.ar    1  UNL1        0.0850
     24 C          62.8632   90.7565   10.9237 C.ar    1  UNL1        0.0193
     25 C          63.7886   91.3337   11.9534 C.ar    1  UNL1        0.0024
     26 C          64.2594   90.4861   13.0979 C.ar    1  UNL1        0.0115
     27 C          63.8047   89.0613   13.2128 C.ar    1  UNL1        0.0592
     28 CL         64.2755   88.2137   14.3573 Cl      1  UNL1       -0.0822
     29 C          62.8792   88.4841   12.1830 C.ar    1  UNL1        0.0306
@<TRIPOS>BOND
     1    14    15    1
     2    15     5    1
     3     5     6   ar
     4     6     7   ar
     5     7     8   ar
     6     8     9   ar
     7     9    10   ar
     8    10    11   ar
     9    11     1    1
    10     1     2    2
    11     1     3   am
    12     3    17    1
    13    17    18   ar
    14    18    19   ar
    15    19    20    1
    16    19    21   ar
    17    21    22   ar
    18    22    23    1
    19    23    24   ar
    20    24    25   ar
    21    25    26   ar
    22    26    27   ar
    23    27    28    1
    24    27    29   ar
    25    11    12   ar
    26    12    13   ar
    27    13     5   ar
    28    12     8   ar
    29    22    17   ar
    30    29    23   ar
    31    15    16    1
    32     3     4    1
@<TRIPOS>MOLECULE
*****
 29 32 0 0 0
SMALL
GASTEIGER

@<TRIPOS>ATOM
      1 C          63.6694   90.3720   12.4265 C.2     1  UNL1        0.2551
      2 O          63.9893   89.6129   13.6801 O.2     1  UNL1       -0.2696
      3 N          64.4454   91.6078   12.0793 N.am    1  UNL1       -0.2656
      4 H          64.2354   92.1060   11.2565 H       1  UNL1        0.1566
      5 C          62.2451   85.8664   11.2485 C.ar    1  UNL1        0.1318
      6 C          61.0894   85.8524   10.2926 C.ar    1  UNL1        0.0548
      7 C          60.5022   87.1444    9.8068 C.ar    1  UNL1        0.1049
      8 N          61.0707   88.4504   10.2771 N.ar    1  UNL1       -0.2104
      9 N          60.7034   89.8726    9.9732 N.ar    1  UNL1       -0.1619
     10 C          61.6321   90.7655   10.7413 C.ar    1  UNL1        0.1281
     11 C          62.5735   89.8952   11.5200 C.ar    1  UNL1        0.1103
     12 C          62.2265   88.4643   11.2330 C.ar    1  UNL1        0.1710
     13 N          62.8137   87.1723   11.7188 N.ar    1  UNL1       -0.2118
     14 C          63.4692   84.5030   13.0905 C.3     1  UNL1        0.1096
     15 N          62.8324   84.5744   11.7343 N.pl3   1  UNL1       -0.3166
     16 H          62.7998   83.7733   11.1630 H       1  UNL1        0.1482
     17 C          65.5413   92.0846   12.9857 C.ar    1  UNL1        0.1370
     18 C          65.5569   91.9782   14.4818 C.ar    1  UNL1        0.0509
     19 C          66.8393   92.5794   14.9759 C.ar    1  UNL1        0.0822
     20 C          67.2692   92.6841   16.4092 C.3     1  UNL1        0.0540
     21 N          67.6161   93.0574   13.7851 N.ar    1  UNL1       -0.1683
     22 N          66.8140   92.7517   12.5551 N.ar    1  UNL1       -0.2162
     23 C          67.2142   93.0590   11.1425 C.ar    1  UNL1        0.0850
     24 C          68.0967   92.1083   10.3893 C.ar    1  UNL1        0.0193
     25 C          68.4969   92.4156    8.9768 C.ar    1  UNL1        0.0024
     26 C          68.0146   93.6736    8.3174 C.ar    1  UNL1        0.0115
     27 C          67.1320   94.6243    9.0706 C.ar    1  UNL1        0.0592
     28 CL         66.6497   95.8823    8.4112 Cl      1  UNL1       -0.0822
     29 C          66.7319   94.3169   10.4832 C.ar    1  UNL1        0.0306
@<TRIPOS>BOND
     1    14    15    1
     2    15     5    1
     3     5     6   ar
     4     6     7   ar
     5     7     8   ar
     6     8     9   ar
     7     9    10   ar
     8    10    11   ar
     9    11     1    1
    10     1     2    2
    11     1     3   am
    12     3    17    1
    13    17    18   ar
    14    18    19   ar
    15    19    20    1
    16    19    21   ar
    17    21    22   ar
    18    22    23    1
    19    23    24   ar
    20    24    25   ar
    21    25    26   ar
    22    26    27   ar
    23    27    28    1
    24    27    29   ar
    25    11    12   ar
    26    12    13   ar
    27    13     5   ar
    28    12     8   ar
    29    22    17   ar
    30    29    23   ar
    31    15    16    1
    32     3     4    1
@<TRIPOS>MOLECULE
*****
 29 32 0 0 0
SMALL
GASTEIGER

@<TRIPOS>ATOM
      1 C          63.6017   89.0324   15.8990 C.2     1  UNL1        0.2551
      2 O          63.1051   90.2872   16.5537 O.2     1  UNL1       -0.2696
      3 N          64.5044   89.1166   14.7040 N.am    1  UNL1       -0.2656
      4 H          64.8304   88.2929   14.2743 H       1  UNL1        0.1566
      5 C          63.6329   84.6224   13.8332 C.ar    1  UNL1        0.1318
      6 C          63.1343   83.5460   14.7512 C.ar    1  UNL1        0.0548
      7 C          62.6942   83.8916   16.1429 C.ar    1  UNL1        0.1049
      8 N          62.7526   85.3136   16.6166 N.ar    1  UNL1       -0.2104
      9 N          62.3890   85.9515   17.9246 N.ar    1  UNL1       -0.1619
     10 C          62.6628   87.4223   17.8149 C.ar    1  UNL1        0.1281
     11 C          63.1957   87.6933   16.4392 C.ar    1  UNL1        0.1103
     12 C          63.2512   86.3900   15.6986 C.ar    1  UNL1        0.1710
     13 N          63.6913   86.0444   14.3069 N.ar    1  UNL1       -0.2118
     14 C          63.0863   83.7175   11.4600 C.3     1  UNL1        0.1096
     15 N          64.0730   84.2768   12.4415 N.pl3   1  UNL1       -0.3166
     16 H          65.0096   84.4170   12.1723 H       1  UNL1        0.1482
     17 C          64.9105   90.4556   14.1636 C.ar    1  UNL1        0.1370
     18 C          65.8396   91.4289   14.8265 C.ar    1  UNL1        0.0509
     19 C          65.9622   92.6313   13.9382 C.ar    1  UNL1        0.0822
     20 C          66.7924   93.8500   14.2135 C.3     1  UNL1        0.0540
     21 N          65.1089   92.4011   12.7262 N.ar    1  UNL1       -0.1683
     22 N          64.4589   91.0565   12.8656 N.ar    1  UNL1       -0.2162
     23 C          63.5218   90.4237   11.8799 C.ar    1  UNL1        0.0850
     24 C          63.0044   91.2204   10.7191 C.ar    1  UNL1        0.0193
     25 C          62.0673   90.5877    9.7334 C.ar    1  UNL1        0.0024
     26 C          61.6477   89.1583    9.9086 C.ar    1  UNL1        0.0115
     27 C          62.1652   88.3615   11.0694 C.ar    1  UNL1        0.0592
     28 CL         61.7456   86.9321   11.2445 Cl      1  UNL1       -0.0822
     29 C          63.1023   88.9944   12.0551 C.ar    1  UNL1        0.0306
@<TRIPOS>BOND
     1    14    15    1
     2    15     5    1
     3     5     6   ar
     4     6     7   ar
     5     7     8   ar
     6     8     9   ar
     7     9    10   ar
     8    10    11   ar
     9    11     1    1
    10     1     2    2
    11     1     3   am
    12     3    17    1
    13    17    18   ar
    14    18    19   ar
    15    19    20    1
    16    19    21   ar
    17    21    22   ar
    18    22    23    1
    19    23    24   ar
    20    24    25   ar
    21    25    26   ar
    22    26    27   ar
    23    27    28    1
    24    27    29   ar
    25    11    12   ar
    26    12    13   ar
    27    13     5   ar
    28    12     8   ar
    29    22    17   ar
    30    29    23   ar
    31    15    16    1
    32     3     4    1
@<TRIPOS>MOLECULE
*****
 29 32 0 0 0
SMALL
GASTEIGER

@<TRIPOS>ATOM
      1 C          62.8509   89.8988   11.0861 C.2     1  UNL1        0.2551
      2 O          62.6642   90.4312    9.6962 O.2     1  UNL1       -0.2696
      3 N          62.2717   88.5676   11.4634 N.am    1  UNL1       -0.2656
      4 H          62.3942   88.2182   12.3756 H       1  UNL1        0.1566
      5 C          63.0229   89.5594   15.9412 C.ar    1  UNL1        0.1318
      6 C          63.9341   90.5751   16.5639 C.ar    1  UNL1        0.0548
      7 C          64.6723   91.5518   15.6971 C.ar    1  UNL1        0.1049
      8 N          64.4993   91.5126   14.2077 N.ar    1  UNL1       -0.2104
      9 N          65.0912   92.3413   13.1063 N.ar    1  UNL1       -0.1619
     10 C          64.5457   91.8376   11.8029 C.ar    1  UNL1        0.1281
     11 C          63.6167   90.6977   12.0987 C.ar    1  UNL1        0.1103
     12 C          63.5880   90.4969   13.5850 C.ar    1  UNL1        0.1710
     13 N          62.8498   89.5202   14.4517 N.ar    1  UNL1       -0.2118
     14 C          62.9368   87.2923   17.2073 C.3     1  UNL1        0.1096
     15 N          62.2847   88.5827   16.8079 N.pl3   1  UNL1       -0.3166
     16 H          61.3721   88.7887   17.1147 H       1  UNL1        0.1482
     17 C          61.5059   87.7687   10.4509 C.ar    1  UNL1        0.1370
     18 C          60.4749   88.3043    9.5021 C.ar    1  UNL1        0.0509
     19 C          59.9684   87.1606    8.6742 C.ar    1  UNL1        0.0822
     20 C          58.9267   87.2446    7.5980 C.3     1  UNL1        0.0540
     21 N          60.6862   85.9182    9.1114 N.ar    1  UNL1       -0.1683
     22 N          61.6365   86.2941   10.2095 N.ar    1  UNL1       -0.2162
     23 C          62.5559   85.3593   10.9382 C.ar    1  UNL1        0.0850
     24 C          63.2698   84.2737   10.1887 C.ar    1  UNL1        0.0193
     25 C          64.1892   83.3391   10.9174 C.ar    1  UNL1        0.0024
     26 C          64.3947   83.4900   12.3955 C.ar    1  UNL1        0.0115
     27 C          63.6807   84.5756   13.1451 C.ar    1  UNL1        0.0592
     28 CL         63.8862   84.7265   14.6232 Cl      1  UNL1       -0.0822
     29 C          62.7613   85.5103   12.4163 C.ar    1  UNL1        0.0306
@<TRIPOS>BOND
     1    14    15    1
     2    15     5    1
     3     5     6   ar
     4     6     7   ar
     5     7     8   ar
     6     8     9   ar
     7     9    10   ar
     8    10    11   ar
     9    11     1    1
    10     1     2    2
    11     1     3   am
    12     3    17    1
    13    17    18   ar
    14    18    19   ar
    15    19    20    1
    16    19    21   ar
    17    21    22   ar
    18    22    23    1
    19    23    24   ar
    20    24    25   ar
    21    25    26   ar
    22    26    27   ar
    23    27    28    1
    24    27    29   ar
    25    11    12   ar
    26    12    13   ar
    27    13     5   ar
    28    12     8   ar
    29    22    17   ar
    30    29    23   ar
    31    15    16    1
    32     3     4    1
@<TRIPOS>MOLECULE
*****
 29 32 0 0 0
SMALL
GASTEIGER

@<TRIPOS>ATOM
      1 C          62.9124   89.7031   12.4836 C.2     1  UNL1        0.2551
      2 O          61.9857   90.4463   11.5677 O.2     1  UNL1       -0.2696
      3 N          63.0941   88.2225   12.3267 N.am    1  UNL1       -0.2656
      4 H          63.7023   87.7348   12.9279 H       1  UNL1        0.1566
      5 C          66.3111   93.1783   12.1869 C.ar    1  UNL1        0.1318
      6 C          66.7911   93.6395   13.5311 C.ar    1  UNL1        0.0548
      7 C          66.2224   93.0325   14.7793 C.ar    1  UNL1        0.1049
      8 N          65.1737   91.9643   14.6834 N.ar    1  UNL1       -0.2104
      9 N          64.4340   91.1869   15.7315 N.ar    1  UNL1       -0.1619
     10 C          63.4968   90.2453   15.0350 C.ar    1  UNL1        0.1281
     11 C          63.6574   90.4406   13.5565 C.ar    1  UNL1        0.1103
     12 C          64.6938   91.5031   13.3392 C.ar    1  UNL1        0.1710
     13 N          65.2625   92.1101   12.0910 N.ar    1  UNL1       -0.2118
     14 C          67.4625   92.9037    9.8742 C.3     1  UNL1        0.1096
     15 N          66.8798   93.7853   10.9387 N.pl3   1  UNL1       -0.3166
     16 H          66.8707   94.7623   10.8181 H       1  UNL1        0.1482
     17 C          62.3491   87.4849   11.2539 C.ar    1  UNL1        0.1370
     18 C          61.6144   88.1071   10.1037 C.ar    1  UNL1        0.0509
     19 C          61.0193   87.0024    9.2818 C.ar    1  UNL1        0.0822
     20 C          60.2009   87.1728    8.0362 C.3     1  UNL1        0.0540
     21 N          61.3862   85.6975    9.9241 N.ar    1  UNL1       -0.1683
     22 N          62.2081   85.9957   11.1429 N.ar    1  UNL1       -0.2162
     23 C          62.7872   84.9825   12.0853 C.ar    1  UNL1        0.0850
     24 C          63.5411   85.4339   13.3011 C.ar    1  UNL1        0.0193
     25 C          64.1202   84.4208   14.2434 C.ar    1  UNL1        0.0024
     26 C          63.9456   82.9563   13.9701 C.ar    1  UNL1        0.0115
     27 C          63.1917   82.5049   12.7543 C.ar    1  UNL1        0.0592
     28 CL         63.0171   81.0404   12.4810 Cl      1  UNL1       -0.0822
     29 C          62.6126   83.5181   11.8119 C.ar    1  UNL1        0.0306
@<TRIPOS>BOND
     1    14    15    1
     2    15     5    1
     3     5     6   ar
     4     6     7   ar
     5     7     8   ar
     6     8     9   ar
     7     9    10   ar
     8    10    11   ar
     9    11     1    1
    10     1     2    2
    11     1     3   am
    12     3    17    1
    13    17    18   ar
    14    18    19   ar
    15    19    20    1
    16    19    21   ar
    17    21    22   ar
    18    22    23    1
    19    23    24   ar
    20    24    25   ar
    21    25    26   ar
    22    26    27   ar
    23    27    28    1
    24    27    29   ar
    25    11    12   ar
    26    12    13   ar
    27    13     5   ar
    28    12     8   ar
    29    22    17   ar
    30    29    23   ar
    31    15    16    1
    32     3     4    1
@<TRIPOS>MOLECULE
*****
 29 32 0 0 0
SMALL
GASTEIGER

@<TRIPOS>ATOM
      1 C          63.5399   85.2276   14.9837 C.2     1  UNL1        0.2551
      2 O          64.8980   84.6497   14.7163 O.2     1  UNL1       -0.2696
      3 N          62.3231   84.5967   14.3744 N.am    1  UNL1       -0.2656
      4 H          61.4317   84.9760   14.5500 H       1  UNL1        0.1566
      5 C          64.0239   89.9673   13.9749 C.ar    1  UNL1        0.1318
      6 C          63.7909   90.8435   15.1698 C.ar    1  UNL1        0.0548
      7 C          63.4493   90.2295   16.4951 C.ar    1  UNL1        0.1049
      8 N          63.3407   88.7391   16.6254 N.ar    1  UNL1       -0.2104
      9 N          63.0216   87.8544   17.7939 N.ar    1  UNL1       -0.1619
     10 C          63.0573   86.4312   17.3211 C.ar    1  UNL1        0.1281
     11 C          63.3986   86.4365   15.8605 C.ar    1  UNL1        0.1103
     12 C          63.5738   87.8629   15.4305 C.ar    1  UNL1        0.1710
     13 N          63.9153   88.4769   14.1053 N.ar    1  UNL1       -0.2118
     14 C          64.9261   91.9713   12.5894 C.3     1  UNL1        0.1096
     15 N          64.3655   90.5813   12.6497 N.pl3   1  UNL1       -0.3166
     16 H          64.2217   90.0721   11.8195 H       1  UNL1        0.1482
     17 C          62.4643   83.3879   13.4977 C.ar    1  UNL1        0.1370
     18 C          62.5253   81.9633   13.9633 C.ar    1  UNL1        0.0509
     19 C          62.6680   81.0863   12.7548 C.ar    1  UNL1        0.0822
     20 C          62.7663   79.5895   12.7583 C.3     1  UNL1        0.0540
     21 N          62.6951   81.9689   11.5423 N.ar    1  UNL1       -0.1683
     22 N          62.5692   83.3913   12.0014 N.ar    1  UNL1       -0.2162
     23 C          62.5513   84.6043   11.1191 C.ar    1  UNL1        0.0850
     24 C          62.9829   84.4961    9.6866 C.ar    1  UNL1        0.0193
     25 C          62.9651   85.7090    8.8043 C.ar    1  UNL1        0.0024
     26 C          62.5156   87.0301    9.3545 C.ar    1  UNL1        0.0115
     27 C          62.0840   87.1383   10.7870 C.ar    1  UNL1        0.0592
     28 CL         61.6346   88.4594   11.3372 Cl      1  UNL1       -0.0822
     29 C          62.1019   85.9253   11.6693 C.ar    1  UNL1        0.0306
@<TRIPOS>BOND
     1    14    15    1
     2    15     5    1
     3     5     6   ar
     4     6     7   ar
     5     7     8   ar
     6     8     9   ar
     7     9    10   ar
     8    10    11   ar
     9    11     1    1
    10     1     2    2
    11     1     3   am
    12     3    17    1
    13    17    18   ar
    14    18    19   ar
    15    19    20    1
    16    19    21   ar
    17    21    22   ar
    18    22    23    1
    19    23    24   ar
    20    24    25   ar
    21    25    26   ar
    22    26    27   ar
    23    27    28    1
    24    27    29   ar
    25    11    12   ar
    26    12    13   ar
    27    13     5   ar
    28    12     8   ar
    29    22    17   ar
    30    29    23   ar
    31    15    16    1
    32     3     4    1
@<TRIPOS>MOLECULE
*****
 29 32 0 0 0
SMALL
GASTEIGER

@<TRIPOS>ATOM
      1 C          63.4414   86.1360   14.6267 C.2     1  UNL1        0.2551
      2 O          63.4920   86.7599   15.9899 O.2     1  UNL1       -0.2696
      3 N          63.6176   86.9882   13.4049 N.am    1  UNL1       -0.2656
      4 H          63.5844   86.5787   12.5102 H       1  UNL1        0.1566
      5 C          63.6275   83.2462   10.7113 C.ar    1  UNL1        0.1318
      6 C          63.3279   81.8118   11.0316 C.ar    1  UNL1        0.0548
      7 C          63.0149   81.4079   12.4419 C.ar    1  UNL1        0.1049
      8 N          63.0016   82.4383   13.5318 N.ar    1  UNL1       -0.2104
      9 N          62.7298   82.3391   15.0036 N.ar    1  UNL1       -0.1619
     10 C          62.8615   83.7122   15.5930 C.ar    1  UNL1        0.1281
     11 C          63.2147   84.6600   14.4853 C.ar    1  UNL1        0.1103
     12 C          63.3012   83.8727   13.2115 C.ar    1  UNL1        0.1710
     13 N          63.6142   84.2767   11.8012 N.ar    1  UNL1       -0.2118
     14 C          63.2696   84.8484    8.6976 C.3     1  UNL1        0.1096
     15 N          63.9405   83.6502    9.3010 N.pl3   1  UNL1       -0.3166
     16 H          64.5862   83.1289    8.7714 H       1  UNL1        0.1482
     17 C          63.8443   88.4641   13.5462 C.ar    1  UNL1        0.1370
     18 C          64.7873   89.1231   14.5088 C.ar    1  UNL1        0.0509
     19 C          64.6937   90.6066   14.3072 C.ar    1  UNL1        0.0822
     20 C          65.4655   91.6491   15.0606 C.3     1  UNL1        0.0540
     21 N          63.6930   90.8644   13.2200 N.ar    1  UNL1       -0.1683
     22 N          63.1680   89.5403   12.7497 N.ar    1  UNL1       -0.2162
     23 C          62.1461   89.3294   11.6720 C.ar    1  UNL1        0.0850
     24 C          61.3470   90.4904   11.1587 C.ar    1  UNL1        0.0193
     25 C          60.3252   90.2796   10.0811 C.ar    1  UNL1        0.0024
     26 C          60.1024   88.9077    9.5168 C.ar    1  UNL1        0.0115
     27 C          60.9015   87.7467   10.0302 C.ar    1  UNL1        0.0592
     28 CL         60.6788   86.3748    9.4659 Cl      1  UNL1       -0.0822
     29 C          61.9234   87.9576   11.1078 C.ar    1  UNL1        0.0306
@<TRIPOS>BOND
     1    14    15    1
     2    15     5    1
     3     5     6   ar
     4     6     7   ar
     5     7     8   ar
     6     8     9   ar
     7     9    10   ar
     8    10    11   ar
     9    11     1    1
    10     1     2    2
    11     1     3   am
    12     3    17    1
    13    17    18   ar
    14    18    19   ar
    15    19    20    1
    16    19    21   ar
    17    21    22   ar
    18    22    23    1
    19    23    24   ar
    20    24    25   ar
    21    25    26   ar
    22    26    27   ar
    23    27    28    1
    24    27    29   ar
    25    11    12   ar
    26    12    13   ar
    27    13     5   ar
    28    12     8   ar
    29    22    17   ar
    30    29    23   ar
    31    15    16    1
    32     3     4    1
@<TRIPOS>MOLECULE
*****
 29 32 0 0 0
SMALL
GASTEIGER

@<TRIPOS>ATOM
      1 C          63.1600   85.1872   13.3231 C.2     1  UNL1        0.2551
      2 O          62.0527   84.6366   14.1721 O.2     1  UNL1       -0.2696
      3 N          63.9611   86.3607   13.8037 N.am    1  UNL1       -0.2656
      4 H          64.6878   86.7220   13.2464 H       1  UNL1        0.1566
      5 C          61.5088   86.2302    8.8619 C.ar    1  UNL1        0.1318
      6 C          62.0894   85.3401    7.8034 C.ar    1  UNL1        0.0548
      7 C          63.0694   84.2685    8.1792 C.ar    1  UNL1        0.1049
      8 N          63.4688   84.0870    9.6136 N.ar    1  UNL1       -0.2104
      9 N          64.4056   83.1239   10.2806 N.ar    1  UNL1       -0.1619
     10 C          64.4040   83.4188   11.7513 C.ar    1  UNL1        0.1281
     11 C          63.4661   84.5642   11.9934 C.ar    1  UNL1        0.1103
     12 C          62.8881   84.9771   10.6722 C.ar    1  UNL1        0.1710
     13 N          61.9081   86.0487   10.2963 N.ar    1  UNL1       -0.2118
     14 C          59.2066   86.9308    7.8827 C.3     1  UNL1        0.1096
     15 N          60.5287   87.3018    8.4861 N.pl3   1  UNL1       -0.3166
     16 H          60.7533   88.2486    8.6354 H       1  UNL1        0.1482
     17 C          63.6550   86.9838   15.1334 C.ar    1  UNL1        0.1370
     18 C          63.2679   86.2496   16.3828 C.ar    1  UNL1        0.0509
     19 C          63.0559   87.2625   17.4687 C.ar    1  UNL1        0.0822
     20 C          62.6577   86.9670   18.8845 C.3     1  UNL1        0.0540
     21 N          63.3121   88.6225   16.8904 N.ar    1  UNL1       -0.1683
     22 N          63.6823   88.4503   15.4471 N.ar    1  UNL1       -0.2162
     23 C          64.0205   89.5514   14.4861 C.ar    1  UNL1        0.0850
     24 C          65.1366   90.5034   14.7990 C.ar    1  UNL1        0.0193
     25 C          65.4748   91.6044   13.8382 C.ar    1  UNL1        0.0024
     26 C          64.6969   91.7534   12.5644 C.ar    1  UNL1        0.0115
     27 C          63.5807   90.8013   12.2514 C.ar    1  UNL1        0.0592
     28 CL         62.8028   90.9504   10.9776 Cl      1  UNL1       -0.0822
     29 C          63.2426   89.7003   13.2124 C.ar    1  UNL1        0.0306
@<TRIPOS>BOND
     1    14    15    1
     2    15     5    1
     3     5     6   ar
     4     6     7   ar
     5     7     8   ar
     6     8     9   ar
     7     9    10   ar
     8    10    11   ar
     9    11     1    1
    10     1     2    2
    11     1     3   am
    12     3    17    1
    13    17    18   ar
    14    18    19   ar
    15    19    20    1
    16    19    21   ar
    17    21    22   ar
    18    22    23    1
    19    23    24   ar
    20    24    25   ar
    21    25    26   ar
    22    26    27   ar
    23    27    28    1
    24    27    29   ar
    25    11    12   ar
    26    12    13   ar
    27    13     5   ar
    28    12     8   ar
    29    22    17   ar
    30    29    23   ar
    31    15    16    1
    32     3     4    1
