@<TRIPOS>MOLECULE
*****
 38 41 0 0 0
SMALL
GASTEIGER

@<TRIPOS>ATOM
      1 C          60.5580   93.0294   -0.3034 C.3     1  UNL1        0.0778
      2 C          61.9847   95.1704   -0.6653 C.ar    1  UNL1        0.2211
      3 N          63.0161   95.9271   -1.4486 N.ar    1  UNL1       -0.2119
      4 C          63.6524   95.2995   -2.6533 C.ar    1  UNL1        0.0844
      5 C          64.6838   96.0562   -3.4366 C.ar    1  UNL1        0.0199
      6 C          65.3201   95.4286   -4.6412 C.ar    1  UNL1        0.0118
      7 C          64.9250   94.0443   -5.0626 C.ar    1  UNL1        0.0685
      8 C          63.8935   93.2876   -4.2794 C.ar    1  UNL1        0.0118
      9 C          63.2573   93.9152   -3.0747 C.ar    1  UNL1        0.0183
     10 C          62.2258   93.1585   -2.2914 C.ar    1  UNL1        0.0023
     11 C          61.5895   93.7861   -1.0868 C.ar    1  UNL1        0.0373
     12 C          62.1816   96.1248    1.7431 C.3     1  UNL1        0.2542
     13 O          61.3483   95.7979    0.5394 O.3     1  UNL1       -0.4563
     14 C          65.5613   93.4167   -6.2674 C.1     1  UNL1        0.1004
     15 N          66.1975   92.7891   -7.4720 N.1     1  UNL1       -0.1908
     16 C          60.8006   92.7077    1.1414 C.ar    1  UNL1       -0.0160
     17 C          59.7693   93.0607    2.1718 C.ar    1  UNL1       -0.0039
     18 C          60.0119   92.7390    3.6167 C.ar    1  UNL1       -0.0006
     19 C          61.2858   92.0643    4.0312 C.ar    1  UNL1       -0.0043
     20 C          62.3172   91.7112    3.0008 C.ar    1  UNL1       -0.0222
     21 C          63.5911   91.0364    3.4153 C.3     1  UNL1        0.0310
     22 C          62.0746   92.0329    1.5559 C.ar    1  UNL1       -0.0081
     23 C          59.2840   92.5944   -0.9650 C.3     1  UNL1        0.1202
     24 O          59.5662   91.1739   -0.5744 O.3     1  UNL1       -0.3818
     25 H          59.3142   90.5827   -1.3009 H       1  UNL1        0.2107
     26 C          59.0019   94.0149   -1.3555 C.ar    1  UNL1        0.0556
     27 C          58.5869   95.0109   -0.3135 C.ar    1  UNL1        0.0042
     28 C          58.3047   96.4314   -0.7040 C.ar    1  UNL1        0.0206
     29 C          58.4375   96.8559   -2.1366 C.ar    1  UNL1        0.1020
     30 N          58.8524   95.8599   -3.1786 N.ar    1  UNL1       -0.2103
     31 C          59.1346   94.4394   -2.7881 C.ar    1  UNL1        0.2229
     32 O          59.5496   93.4434   -3.8301 O.3     1  UNL1       -0.4563
     33 C          58.8866   93.4454   -5.1756 C.3     1  UNL1        0.2542
     34 C          58.0101   92.1594   -1.6265 C.3     1  UNL1        0.0493
     35 C          56.6983   92.7316   -1.1772 C.3     1  UNL1        0.0750
     36 N          55.7968   93.4082   -2.1669 N.3     1  UNL1       -0.2702
     37 C          54.9140   94.5383   -1.7269 C.3     1  UNL1        0.0897
     38 C          55.7781   92.9548   -3.5966 C.3     1  UNL1        0.0897
@<TRIPOS>BOND
     1    12    13    1
     2    13     2    1
     3     2     3   ar
     4     3     4   ar
     5     4     5   ar
     6     5     6   ar
     7     6     7   ar
     8     7    14    1
     9    14    15    3
    10     7     8   ar
    11     8     9   ar
    12     9    10   ar
    13    10    11   ar
    14    11     1    1
    15     1    16    1
    16    16    17   ar
    17    17    18   ar
    18    18    19   ar
    19    19    20   ar
    20    20    21    1
    21    20    22   ar
    22     1    23    1
    23    23    24    1
    24    23    34    1
    25    34    35    1
    26    35    36    1
    27    36    37    1
    28    36    38    1
    29    23    26    1
    30    26    27   ar
    31    27    28   ar
    32    28    29   ar
    33    29    30   ar
    34    30    31   ar
    35    31    32    1
    36    32    33    1
    37    11     2   ar
    38    22    16   ar
    39    31    26   ar
    40     9     4   ar
    41    24    25    1
@<TRIPOS>MOLECULE
*****
 38 41 0 0 0
SMALL
GASTEIGER

@<TRIPOS>ATOM
      1 C          65.0876   91.5193   13.9217 C.3     1  UNL1        0.0778
      2 C          63.7551   90.7488   16.0147 C.ar    1  UNL1        0.2211
      3 N          63.1708   89.6487   16.8503 N.ar    1  UNL1       -0.2119
      4 C          63.3349   88.2185   16.4284 C.ar    1  UNL1        0.0844
      5 C          62.7507   87.1184   17.2640 C.ar    1  UNL1        0.0199
      6 C          62.9148   85.6883   16.8421 C.ar    1  UNL1        0.0118
      7 C          63.6631   85.3585   15.5847 C.ar    1  UNL1        0.0685
      8 C          64.2473   86.4587   14.7491 C.ar    1  UNL1        0.0118
      9 C          64.0832   87.8887   15.1710 C.ar    1  UNL1        0.0183
     10 C          64.6675   88.9890   14.3354 C.ar    1  UNL1        0.0023
     11 C          64.5034   90.4190   14.7573 C.ar    1  UNL1        0.0373
     12 C          64.5898   92.8070   17.3629 C.3     1  UNL1        0.2542
     13 O          63.5910   92.1790   16.4366 O.3     1  UNL1       -0.4563
     14 C          63.8272   83.9284   15.1628 C.1     1  UNL1        0.1004
     15 N          63.9912   82.4983   14.7409 N.1     1  UNL1       -0.1908
     16 C          66.2264   92.3394   14.4514 C.ar    1  UNL1       -0.0160
     17 C          66.3181   93.7990   14.1183 C.ar    1  UNL1       -0.0039
     18 C          67.4569   94.6191   14.6480 C.ar    1  UNL1       -0.0006
     19 C          68.5039   93.9796   15.5110 C.ar    1  UNL1       -0.0043
     20 C          68.4122   92.5199   15.8442 C.ar    1  UNL1       -0.0222
     21 C          69.4592   91.8804   16.7071 C.3     1  UNL1        0.0310
     22 C          67.2735   91.6998   15.3144 C.ar    1  UNL1       -0.0081
     23 C          64.5331   91.7994   12.5564 C.3     1  UNL1        0.1202
     24 O          63.1444   91.5645   13.0723 O.3     1  UNL1       -0.3818
     25 H          62.6295   91.0819   12.4067 H       1  UNL1        0.2107
     26 C          65.9219   92.0342   12.0405 C.ar    1  UNL1        0.0556
     27 C          67.0290   91.0925   12.4115 C.ar    1  UNL1        0.0042
     28 C          68.4178   91.3273   11.8956 C.ar    1  UNL1        0.0206
     29 C          68.6995   92.5039   11.0088 C.ar    1  UNL1        0.1020
     30 N          67.5925   93.4456   10.6379 N.ar    1  UNL1       -0.2103
     31 C          66.2036   93.2108   11.1537 C.ar    1  UNL1        0.2229
     32 O          65.0966   94.1524   10.7828 O.3     1  UNL1       -0.4563
     33 C          65.4101   95.5755   10.4268 C.3     1  UNL1        0.2542
     34 C          63.9786   92.0795   11.1911 C.3     1  UNL1        0.0493
     35 C          63.4792   90.9510   10.3384 C.3     1  UNL1        0.0750
     36 N          62.3508   90.0886   10.8214 N.3     1  UNL1       -0.2702
     37 C          62.6368   88.7368   11.4052 C.3     1  UNL1        0.0897
     38 C          60.9365   90.5780   10.7205 C.3     1  UNL1        0.0897
@<TRIPOS>BOND
     1    12    13    1
     2    13     2    1
     3     2     3   ar
     4     3     4   ar
     5     4     5   ar
     6     5     6   ar
     7     6     7   ar
     8     7    14    1
     9    14    15    3
    10     7     8   ar
    11     8     9   ar
    12     9    10   ar
    13    10    11   ar
    14    11     1    1
    15     1    16    1
    16    16    17   ar
    17    17    18   ar
    18    18    19   ar
    19    19    20   ar
    20    20    21    1
    21    20    22   ar
    22     1    23    1
    23    23    24    1
    24    23    34    1
    25    34    35    1
    26    35    36    1
    27    36    37    1
    28    36    38    1
    29    23    26    1
    30    26    27   ar
    31    27    28   ar
    32    28    29   ar
    33    29    30   ar
    34    30    31   ar
    35    31    32    1
    36    32    33    1
    37    11     2   ar
    38    22    16   ar
    39    31    26   ar
    40     9     4   ar
    41    24    25    1
@<TRIPOS>MOLECULE
*****
 38 41 0 0 0
SMALL
GASTEIGER

@<TRIPOS>ATOM
      1 C          60.7522   94.4825   -0.3460 C.3     1  UNL1        0.0778
      2 C          62.8010   95.7815   -1.2762 C.ar    1  UNL1        0.2211
      3 N          63.9312   95.8957   -2.2558 N.ar    1  UNL1       -0.2119
      4 C          64.1429   94.8250   -3.2849 C.ar    1  UNL1        0.0844
      5 C          65.2731   94.9392   -4.2644 C.ar    1  UNL1        0.0199
      6 C          65.4847   93.8685   -5.2934 C.ar    1  UNL1        0.0118
      7 C          64.5662   92.6837   -5.3428 C.ar    1  UNL1        0.0685
      8 C          63.4360   92.5695   -4.3633 C.ar    1  UNL1        0.0118
      9 C          63.2244   93.6401   -3.3343 C.ar    1  UNL1        0.0183
     10 C          62.0941   93.5260   -2.3546 C.ar    1  UNL1        0.0023
     11 C          61.8825   94.5966   -1.3257 C.ar    1  UNL1        0.0373
     12 C          63.1274   96.6745    1.1417 C.3     1  UNL1        0.2542
     13 O          62.5893   96.8522   -0.2472 O.3     1  UNL1       -0.4563
     14 C          64.7779   91.6130   -6.3719 C.1     1  UNL1        0.1004
     15 N          64.9896   90.5424   -7.4009 N.1     1  UNL1       -0.1908
     16 C          60.8909   93.6009    0.8596 C.ar    1  UNL1       -0.0160
     17 C          59.6956   93.3109    1.7181 C.ar    1  UNL1       -0.0039
     18 C          59.8342   92.4292    2.9238 C.ar    1  UNL1       -0.0006
     19 C          61.1682   91.8376    3.2708 C.ar    1  UNL1       -0.0043
     20 C          62.3636   92.1275    2.4123 C.ar    1  UNL1       -0.0222
     21 C          63.6975   91.5359    2.7593 C.3     1  UNL1        0.0310
     22 C          62.2249   93.0092    1.2066 C.ar    1  UNL1       -0.0081
     23 C          59.4834   95.2499   -0.5720 C.3     1  UNL1        0.1202
     24 O          59.5148   95.7211    0.8517 O.3     1  UNL1       -0.3818
     25 H          58.6146   95.7189    1.2129 H       1  UNL1        0.2107
     26 C          59.4521   94.7788   -1.9957 C.ar    1  UNL1        0.0556
     27 C          59.9786   95.6604   -3.0893 C.ar    1  UNL1        0.0042
     28 C          59.9472   95.1892   -4.5130 C.ar    1  UNL1        0.0206
     29 C          59.3893   93.8366   -4.8433 C.ar    1  UNL1        0.1020
     30 N          58.8629   92.9550   -3.7498 N.ar    1  UNL1       -0.2103
     31 C          58.8942   93.4261   -2.3260 C.ar    1  UNL1        0.2229
     32 O          58.3677   92.5446   -1.2326 O.3     1  UNL1       -0.4563
     33 C          56.8956   92.5006   -0.9480 C.3     1  UNL1        0.2542
     34 C          58.2146   96.0174   -0.7980 C.3     1  UNL1        0.0493
     35 C          57.5823   96.0374   -2.1581 C.3     1  UNL1        0.0750
     36 N          56.1200   95.7393   -2.3098 N.3     1  UNL1       -0.2702
     37 C          55.1679   96.0707   -1.1991 C.3     1  UNL1        0.0897
     38 C          55.6099   95.1098   -3.5721 C.3     1  UNL1        0.0897
@<TRIPOS>BOND
     1    12    13    1
     2    13     2    1
     3     2     3   ar
     4     3     4   ar
     5     4     5   ar
     6     5     6   ar
     7     6     7   ar
     8     7    14    1
     9    14    15    3
    10     7     8   ar
    11     8     9   ar
    12     9    10   ar
    13    10    11   ar
    14    11     1    1
    15     1    16    1
    16    16    17   ar
    17    17    18   ar
    18    18    19   ar
    19    19    20   ar
    20    20    21    1
    21    20    22   ar
    22     1    23    1
    23    23    24    1
    24    23    34    1
    25    34    35    1
    26    35    36    1
    27    36    37    1
    28    36    38    1
    29    23    26    1
    30    26    27   ar
    31    27    28   ar
    32    28    29   ar
    33    29    30   ar
    34    30    31   ar
    35    31    32    1
    36    32    33    1
    37    11     2   ar
    38    22    16   ar
    39    31    26   ar
    40     9     4   ar
    41    24    25    1
@<TRIPOS>MOLECULE
*****
 38 41 0 0 0
SMALL
GASTEIGER

@<TRIPOS>ATOM
      1 C          62.6982   89.4051   12.6171 C.3     1  UNL1        0.0778
      2 C          64.0818   91.1185   13.9954 C.ar    1  UNL1        0.2211
      3 N          65.0199   92.2877   14.0489 N.ar    1  UNL1       -0.2119
      4 C          65.5126   92.9127   12.7773 C.ar    1  UNL1        0.0844
      5 C          66.4508   94.0819   12.8308 C.ar    1  UNL1        0.0199
      6 C          66.9434   94.7069   11.5593 C.ar    1  UNL1        0.0118
      7 C          66.4980   94.1626   10.2344 C.ar    1  UNL1        0.0685
      8 C          65.5598   92.9935   10.1810 C.ar    1  UNL1        0.0118
      9 C          65.0672   92.3685   11.4524 C.ar    1  UNL1        0.0183
     10 C          64.1290   91.1993   11.3990 C.ar    1  UNL1        0.0023
     11 C          63.6364   90.5743   12.6705 C.ar    1  UNL1        0.0373
     12 C          63.8293   91.1767   16.5806 C.3     1  UNL1        0.2542
     13 O          63.5891   90.4935   15.2669 O.3     1  UNL1       -0.4563
     14 C          66.9907   94.7877    8.9629 C.1     1  UNL1        0.1004
     15 N          67.4833   95.4126    7.6914 N.1     1  UNL1       -0.1908
     16 C          61.2399   89.6255   12.3435 C.ar    1  UNL1       -0.0160
     17 C          60.8140   90.6101   11.2952 C.ar    1  UNL1       -0.0039
     18 C          59.3558   90.8305   11.0215 C.ar    1  UNL1       -0.0006
     19 C          58.3234   90.0663   11.7962 C.ar    1  UNL1       -0.0043
     20 C          58.7493   89.0815   12.8445 C.ar    1  UNL1       -0.0222
     21 C          57.7170   88.3172   13.6191 C.3     1  UNL1        0.0310
     22 C          60.2076   88.8611   13.1182 C.ar    1  UNL1       -0.0081
     23 C          63.2183   88.0155   12.8374 C.3     1  UNL1        0.1202
     24 O          63.8338   88.4514   14.1340 O.3     1  UNL1       -0.3818
     25 H          64.7016   88.0306   14.2376 H       1  UNL1        0.2107
     26 C          62.6029   87.5796   11.5408 C.ar    1  UNL1        0.0556
     27 C          62.6177   88.5002   10.3566 C.ar    1  UNL1        0.0042
     28 C          62.0023   88.0643    9.0600 C.ar    1  UNL1        0.0206
     29 C          61.3720   86.7078    8.9475 C.ar    1  UNL1        0.1020
     30 N          61.3571   85.7873   10.1317 N.ar    1  UNL1       -0.2103
     31 C          61.9725   86.2231   11.4284 C.ar    1  UNL1        0.2229
     32 O          61.9577   85.3025   12.6125 O.3     1  UNL1       -0.4563
     33 C          62.3604   83.8666   12.4513 C.3     1  UNL1        0.2542
     34 C          63.7384   86.6259   13.0577 C.3     1  UNL1        0.0493
     35 C          64.5683   86.3190   14.2689 C.3     1  UNL1        0.0750
     36 N          64.0436   85.3876   15.3212 N.3     1  UNL1       -0.2702
     37 C          63.2729   85.9316   16.4874 C.3     1  UNL1        0.0897
     38 C          64.2896   83.9123   15.2073 C.3     1  UNL1        0.0897
@<TRIPOS>BOND
     1    12    13    1
     2    13     2    1
     3     2     3   ar
     4     3     4   ar
     5     4     5   ar
     6     5     6   ar
     7     6     7   ar
     8     7    14    1
     9    14    15    3
    10     7     8   ar
    11     8     9   ar
    12     9    10   ar
    13    10    11   ar
    14    11     1    1
    15     1    16    1
    16    16    17   ar
    17    17    18   ar
    18    18    19   ar
    19    19    20   ar
    20    20    21    1
    21    20    22   ar
    22     1    23    1
    23    23    24    1
    24    23    34    1
    25    34    35    1
    26    35    36    1
    27    36    37    1
    28    36    38    1
    29    23    26    1
    30    26    27   ar
    31    27    28   ar
    32    28    29   ar
    33    29    30   ar
    34    30    31   ar
    35    31    32    1
    36    32    33    1
    37    11     2   ar
    38    22    16   ar
    39    31    26   ar
    40     9     4   ar
    41    24    25    1
@<TRIPOS>MOLECULE
*****
 38 41 0 0 0
SMALL
GASTEIGER

@<TRIPOS>ATOM
      1 C          62.0837   87.6920   10.8041 C.3     1  UNL1        0.0778
      2 C          63.4406   87.3903   12.9991 C.ar    1  UNL1        0.2211
      3 N          63.9827   86.5022   14.0795 N.ar    1  UNL1       -0.2119
      4 C          63.7099   85.0276   14.0455 C.ar    1  UNL1        0.0844
      5 C          64.2520   84.1395   15.1260 C.ar    1  UNL1        0.0199
      6 C          63.9792   82.6649   15.0920 C.ar    1  UNL1        0.0118
      7 C          63.1644   82.0784   13.9775 C.ar    1  UNL1        0.0685
      8 C          62.6223   82.9665   12.8971 C.ar    1  UNL1        0.0118
      9 C          62.8951   84.4411   12.9311 C.ar    1  UNL1        0.0183
     10 C          62.3530   85.3292   11.8506 C.ar    1  UNL1        0.0023
     11 C          62.6258   86.8038   11.8846 C.ar    1  UNL1        0.0373
     12 C          64.1711   89.5139   14.3056 C.3     1  UNL1        0.2542
     13 O          63.7134   88.8649   13.0330 O.3     1  UNL1       -0.4563
     14 C          62.8916   80.6038   13.9435 C.1     1  UNL1        0.1004
     15 N          62.6189   79.1292   13.9096 N.1     1  UNL1       -0.1908
     16 C          61.3703   87.0929    9.6284 C.ar    1  UNL1       -0.0160
     17 C          59.9032   87.3395    9.4361 C.ar    1  UNL1       -0.0039
     18 C          59.1898   86.7404    8.2605 C.ar    1  UNL1       -0.0006
     19 C          59.9434   85.8949    7.2771 C.ar    1  UNL1       -0.0043
     20 C          61.4105   85.6483    7.4694 C.ar    1  UNL1       -0.0222
     21 C          62.1641   84.8027    6.4860 C.3     1  UNL1        0.0310
     22 C          62.1239   86.2473    8.6450 C.ar    1  UNL1       -0.0081
     23 C          62.2550   89.1791   10.8993 C.3     1  UNL1        0.1202
     24 O          63.6216   89.0605   10.2923 O.3     1  UNL1       -0.3818
     25 H          64.2271   89.6743   10.7366 H       1  UNL1        0.2107
     26 C          60.8885   89.2977   11.5063 C.ar    1  UNL1        0.0556
     27 C          60.5842   88.6165   12.8077 C.ar    1  UNL1        0.0042
     28 C          59.2177   88.7351   13.4147 C.ar    1  UNL1        0.0206
     29 C          58.1554   89.5348   12.7204 C.ar    1  UNL1        0.1020
     30 N          58.4597   90.2160   11.4191 N.ar    1  UNL1       -0.2103
     31 C          59.8263   90.0974   10.8120 C.ar    1  UNL1        0.2229
     32 O          60.1305   90.7785    9.5107 O.3     1  UNL1       -0.4563
     33 C          59.9559   90.0382    8.2179 C.3     1  UNL1        0.2542
     34 C          62.4264   90.6662   10.9945 C.3     1  UNL1        0.0493
     35 C          63.5470   91.3406   10.2600 C.3     1  UNL1        0.0750
     36 N          64.6299   92.0423   11.0248 N.3     1  UNL1       -0.2702
     37 C          65.7173   92.7685   10.2898 C.3     1  UNL1        0.0897
     38 C          64.6255   92.0177   12.5246 C.3     1  UNL1        0.0897
@<TRIPOS>BOND
     1    12    13    1
     2    13     2    1
     3     2     3   ar
     4     3     4   ar
     5     4     5   ar
     6     5     6   ar
     7     6     7   ar
     8     7    14    1
     9    14    15    3
    10     7     8   ar
    11     8     9   ar
    12     9    10   ar
    13    10    11   ar
    14    11     1    1
    15     1    16    1
    16    16    17   ar
    17    17    18   ar
    18    18    19   ar
    19    19    20   ar
    20    20    21    1
    21    20    22   ar
    22     1    23    1
    23    23    24    1
    24    23    34    1
    25    34    35    1
    26    35    36    1
    27    36    37    1
    28    36    38    1
    29    23    26    1
    30    26    27   ar
    31    27    28   ar
    32    28    29   ar
    33    29    30   ar
    34    30    31   ar
    35    31    32    1
    36    32    33    1
    37    11     2   ar
    38    22    16   ar
    39    31    26   ar
    40     9     4   ar
    41    24    25    1
@<TRIPOS>MOLECULE
*****
 38 41 0 0 0
SMALL
GASTEIGER

@<TRIPOS>ATOM
      1 C          60.9760   93.2481   -0.4932 C.3     1  UNL1        0.0778
      2 C          62.5080   95.3417   -0.6342 C.ar    1  UNL1        0.2211
      3 N          63.5900   96.1153   -1.3275 N.ar    1  UNL1       -0.2119
      4 C          64.2222   95.5688   -2.5733 C.ar    1  UNL1        0.0844
      5 C          65.3043   96.3424   -3.2666 C.ar    1  UNL1        0.0199
      6 C          65.9364   95.7959   -4.5123 C.ar    1  UNL1        0.0118
      7 C          65.4864   94.4759   -5.0647 C.ar    1  UNL1        0.0685
      8 C          64.4044   93.7023   -4.3714 C.ar    1  UNL1        0.0118
      9 C          63.7723   94.2488   -3.1257 C.ar    1  UNL1        0.0183
     10 C          62.6902   93.4752   -2.4323 C.ar    1  UNL1        0.0023
     11 C          62.0581   94.0217   -1.1866 C.ar    1  UNL1        0.0373
     12 C          62.7233   96.5648    1.6478 C.3     1  UNL1        0.2542
     13 O          61.8758   95.8881    0.6115 O.3     1  UNL1       -0.4563
     14 C          66.1186   93.9295   -6.3104 C.1     1  UNL1        0.1004
     15 N          66.7508   93.3831   -7.5561 N.1     1  UNL1       -0.1908
     16 C          61.1579   92.8167    0.9319 C.ar    1  UNL1       -0.0160
     17 C          62.4801   92.2754    1.3887 C.ar    1  UNL1       -0.0039
     18 C          62.6620   91.8440    2.8137 C.ar    1  UNL1       -0.0006
     19 C          61.5217   91.9539    3.7820 C.ar    1  UNL1       -0.0043
     20 C          60.1994   92.4953    3.3252 C.ar    1  UNL1       -0.0222
     21 C          59.0591   92.6052    4.2935 C.3     1  UNL1        0.0310
     22 C          60.0175   92.9267    1.9001 C.ar    1  UNL1       -0.0081
     23 C          59.7121   92.9059   -1.2249 C.3     1  UNL1        0.1202
     24 O          59.6421   91.5987   -0.4927 O.3     1  UNL1       -0.3818
     25 H          59.3440   90.9035   -1.1000 H       1  UNL1        0.2107
     26 C          59.7820   94.2132   -1.9571 C.ar    1  UNL1        0.0556
     27 C          60.2886   94.2563   -3.3683 C.ar    1  UNL1        0.0042
     28 C          60.3586   95.5636   -4.1005 C.ar    1  UNL1        0.0206
     29 C          59.9220   96.8278   -3.4215 C.ar    1  UNL1        0.1020
     30 N          59.4154   96.7848   -2.0103 N.ar    1  UNL1       -0.2103
     31 C          59.3454   95.4774   -1.2780 C.ar    1  UNL1        0.2229
     32 O          58.8388   95.4344    0.1332 O.3     1  UNL1       -0.4563
     33 C          58.9523   96.6475    1.0081 C.3     1  UNL1        0.2542
     34 C          58.4481   92.5638   -1.9566 C.3     1  UNL1        0.0493
     35 C          57.7022   93.6292   -2.7038 C.3     1  UNL1        0.0750
     36 N          56.2789   93.9396   -2.3461 N.3     1  UNL1       -0.2702
     37 C          55.7078   95.2934   -2.6477 C.3     1  UNL1        0.0897
     38 C          55.4267   92.8961   -1.6867 C.3     1  UNL1        0.0897
@<TRIPOS>BOND
     1    12    13    1
     2    13     2    1
     3     2     3   ar
     4     3     4   ar
     5     4     5   ar
     6     5     6   ar
     7     6     7   ar
     8     7    14    1
     9    14    15    3
    10     7     8   ar
    11     8     9   ar
    12     9    10   ar
    13    10    11   ar
    14    11     1    1
    15     1    16    1
    16    16    17   ar
    17    17    18   ar
    18    18    19   ar
    19    19    20   ar
    20    20    21    1
    21    20    22   ar
    22     1    23    1
    23    23    24    1
    24    23    34    1
    25    34    35    1
    26    35    36    1
    27    36    37    1
    28    36    38    1
    29    23    26    1
    30    26    27   ar
    31    27    28   ar
    32    28    29   ar
    33    29    30   ar
    34    30    31   ar
    35    31    32    1
    36    32    33    1
    37    11     2   ar
    38    22    16   ar
    39    31    26   ar
    40     9     4   ar
    41    24    25    1
@<TRIPOS>MOLECULE
*****
 38 41 0 0 0
SMALL
GASTEIGER

@<TRIPOS>ATOM
      1 C          61.6430   88.1282    9.8081 C.3     1  UNL1        0.0778
      2 C          62.5683   85.7914    9.1497 C.ar    1  UNL1        0.2211
      3 N          63.1640   84.4722    9.5429 N.ar    1  UNL1       -0.2119
      4 C          63.4301   84.1703   10.9880 C.ar    1  UNL1        0.0844
      5 C          64.0258   82.8510   11.3812 C.ar    1  UNL1        0.0199
      6 C          64.2918   82.5492   12.8262 C.ar    1  UNL1        0.0118
      7 C          63.9621   83.5666   13.8780 C.ar    1  UNL1        0.0685
      8 C          63.3665   84.8858   13.4848 C.ar    1  UNL1        0.0118
      9 C          63.1004   85.1877   12.0398 C.ar    1  UNL1        0.0183
     10 C          62.5047   86.5070   11.6464 C.ar    1  UNL1        0.0023
     11 C          62.2387   86.8089   10.2014 C.ar    1  UNL1        0.0373
     12 C          61.9607   84.9820    6.7568 C.3     1  UNL1        0.2542
     13 O          62.3023   86.0934    7.7046 O.3     1  UNL1       -0.4563
     14 C          64.2282   83.2647   15.3231 C.1     1  UNL1        0.1004
     15 N          64.4943   82.9628   16.7680 N.1     1  UNL1       -0.1908
     16 C          60.5335   88.1794    8.8000 C.ar    1  UNL1       -0.0160
     17 C          59.5268   87.0693    8.7356 C.ar    1  UNL1       -0.0039
     18 C          58.4173   87.1205    7.7274 C.ar    1  UNL1       -0.0006
     19 C          58.3145   88.2818    6.7836 C.ar    1  UNL1       -0.0043
     20 C          59.3212   89.3919    6.8480 C.ar    1  UNL1       -0.0222
     21 C          59.2184   90.5532    5.9042 C.3     1  UNL1        0.0310
     22 C          60.4307   89.3408    7.8562 C.ar    1  UNL1       -0.0081
     23 C          62.1568   89.3962   10.4230 C.3     1  UNL1        0.1202
     24 O          63.2683   89.4339    9.4165 O.3     1  UNL1       -0.3818
     25 H          64.0854   89.7286    9.8481 H       1  UNL1        0.2107
     26 C          61.0453   89.3585   11.4295 C.ar    1  UNL1        0.0556
     27 C          59.6181   89.3148   10.9696 C.ar    1  UNL1        0.0042
     28 C          58.5066   89.2771   11.9761 C.ar    1  UNL1        0.0206
     29 C          58.8222   89.2832   13.4425 C.ar    1  UNL1        0.1020
     30 N          60.2492   89.3269   13.9025 N.ar    1  UNL1       -0.2103
     31 C          61.3608   89.3646   12.8959 C.ar    1  UNL1        0.2229
     32 O          62.7879   89.4083   13.3558 O.3     1  UNL1       -0.4563
     33 C          63.1107   89.8223   14.7610 C.3     1  UNL1        0.2542
     34 C          62.6706   90.6642   11.0378 C.3     1  UNL1        0.0493
     35 C          63.6846   91.4944   10.3081 C.3     1  UNL1        0.0750
     36 N          64.7579   92.2108   11.0730 N.3     1  UNL1       -0.2702
     37 C          65.6560   93.1855   10.3706 C.3     1  UNL1        0.0897
     38 C          64.9331   91.9524   12.5401 C.3     1  UNL1        0.0897
@<TRIPOS>BOND
     1    12    13    1
     2    13     2    1
     3     2     3   ar
     4     3     4   ar
     5     4     5   ar
     6     5     6   ar
     7     6     7   ar
     8     7    14    1
     9    14    15    3
    10     7     8   ar
    11     8     9   ar
    12     9    10   ar
    13    10    11   ar
    14    11     1    1
    15     1    16    1
    16    16    17   ar
    17    17    18   ar
    18    18    19   ar
    19    19    20   ar
    20    20    21    1
    21    20    22   ar
    22     1    23    1
    23    23    24    1
    24    23    34    1
    25    34    35    1
    26    35    36    1
    27    36    37    1
    28    36    38    1
    29    23    26    1
    30    26    27   ar
    31    27    28   ar
    32    28    29   ar
    33    29    30   ar
    34    30    31   ar
    35    31    32    1
    36    32    33    1
    37    11     2   ar
    38    22    16   ar
    39    31    26   ar
    40     9     4   ar
    41    24    25    1
@<TRIPOS>MOLECULE
*****
 38 41 0 0 0
SMALL
GASTEIGER

@<TRIPOS>ATOM
      1 C          62.9937   89.9779   12.0224 C.3     1  UNL1        0.0778
      2 C          63.2770   89.2458   14.4991 C.ar    1  UNL1        0.2211
      3 N          63.4875   88.1658   15.5185 N.ar    1  UNL1       -0.2119
      4 C          63.6254   86.7377   15.0806 C.ar    1  UNL1        0.0844
      5 C          63.8360   85.6577   16.1000 C.ar    1  UNL1        0.0199
      6 C          63.9739   84.2297   15.6621 C.ar    1  UNL1        0.0118
      7 C          63.9013   83.8817   14.2049 C.ar    1  UNL1        0.0685
      8 C          63.6907   84.9617   13.1855 C.ar    1  UNL1        0.0118
      9 C          63.5528   86.3897   13.6234 C.ar    1  UNL1        0.0183
     10 C          63.3422   87.4698   12.6040 C.ar    1  UNL1        0.0023
     11 C          63.2043   88.8978   13.0418 C.ar    1  UNL1        0.0373
     12 C          63.8647   91.1575   16.1574 C.3     1  UNL1        0.2542
     13 O          63.1390   90.6738   14.9370 O.3     1  UNL1       -0.4563
     14 C          64.0392   82.4536   13.7670 C.1     1  UNL1        0.1004
     15 N          64.1772   81.0256   13.3291 N.1     1  UNL1       -0.1908
     16 C          64.0902   90.9595   11.7324 C.ar    1  UNL1       -0.0160
     17 C          64.1175   91.6878   10.4214 C.ar    1  UNL1       -0.0039
     18 C          65.2140   92.6695   10.1314 C.ar    1  UNL1       -0.0006
     19 C          66.2832   92.9228   11.1525 C.ar    1  UNL1       -0.0043
     20 C          66.2560   92.1945   12.4635 C.ar    1  UNL1       -0.0222
     21 C          67.3253   92.4478   13.4846 C.3     1  UNL1        0.0310
     22 C          65.1595   91.2128   12.7535 C.ar    1  UNL1       -0.0081
     23 C          61.6867   90.0763   11.2931 C.3     1  UNL1        0.1202
     24 O          61.5463   91.5021   11.7373 O.3     1  UNL1       -0.3818
     25 H          60.6208   91.6793   11.9677 H       1  UNL1        0.2107
     26 C          61.8272   88.6505   10.8489 C.ar    1  UNL1        0.0556
     27 C          62.8038   88.2947    9.7673 C.ar    1  UNL1        0.0042
     28 C          62.9443   86.8689    9.3231 C.ar    1  UNL1        0.0206
     29 C          62.1083   85.7989    9.9605 C.ar    1  UNL1        0.1020
     30 N          61.1318   86.1547   11.0420 N.ar    1  UNL1       -0.2103
     31 C          60.9912   87.5806   11.4863 C.ar    1  UNL1        0.2229
     32 O          60.0147   87.9364   12.5678 O.3     1  UNL1       -0.4563
     33 C          58.7325   88.6332   12.2210 C.3     1  UNL1        0.2542
     34 C          60.3797   90.1748   10.5637 C.3     1  UNL1        0.0493
     35 C          60.3632   90.3310    9.0720 C.3     1  UNL1        0.0750
     36 N          59.6863   89.3006    8.2174 N.3     1  UNL1       -0.2702
     37 C          59.4603   89.5671    6.7587 C.3     1  UNL1        0.0897
     38 C          59.2355   88.0038    8.8216 C.3     1  UNL1        0.0897
@<TRIPOS>BOND
     1    12    13    1
     2    13     2    1
     3     2     3   ar
     4     3     4   ar
     5     4     5   ar
     6     5     6   ar
     7     6     7   ar
     8     7    14    1
     9    14    15    3
    10     7     8   ar
    11     8     9   ar
    12     9    10   ar
    13    10    11   ar
    14    11     1    1
    15     1    16    1
    16    16    17   ar
    17    17    18   ar
    18    18    19   ar
    19    19    20   ar
    20    20    21    1
    21    20    22   ar
    22     1    23    1
    23    23    24    1
    24    23    34    1
    25    34    35    1
    26    35    36    1
    27    36    37    1
    28    36    38    1
    29    23    26    1
    30    26    27   ar
    31    27    28   ar
    32    28    29   ar
    33    29    30   ar
    34    30    31   ar
    35    31    32    1
    36    32    33    1
    37    11     2   ar
    38    22    16   ar
    39    31    26   ar
    40     9     4   ar
    41    24    25    1
@<TRIPOS>MOLECULE
*****
 38 41 0 0 0
SMALL
GASTEIGER

@<TRIPOS>ATOM
      1 C          63.0945   88.7182   12.1680 C.3     1  UNL1        0.0778
      2 C          60.7233   88.8811   11.1186 C.ar    1  UNL1        0.2211
      3 N          59.7325   88.4569   10.0755 N.ar    1  UNL1       -0.2119
      4 C          60.1219   87.4455    9.0384 C.ar    1  UNL1        0.0844
      5 C          59.1310   87.0213    7.9952 C.ar    1  UNL1        0.0199
      6 C          59.5205   86.0099    6.9582 C.ar    1  UNL1        0.0118
      7 C          60.9008   85.4228    6.9644 C.ar    1  UNL1        0.0685
      8 C          61.8916   85.8470    8.0075 C.ar    1  UNL1        0.0118
      9 C          61.5022   86.8584    9.0445 C.ar    1  UNL1        0.0183
     10 C          62.4931   87.2826   10.0878 C.ar    1  UNL1        0.0023
     11 C          62.1036   88.2940   11.1248 C.ar    1  UNL1        0.0373
     12 C          59.1761   90.8133   11.9077 C.3     1  UNL1        0.2542
     13 O          60.3339   89.8925   12.1557 O.3     1  UNL1       -0.4563
     14 C          61.2902   84.4114    5.9273 C.1     1  UNL1        0.1004
     15 N          61.6797   83.4001    4.8902 N.1     1  UNL1       -0.1908
     16 C          63.6304   87.7146   13.1455 C.ar    1  UNL1       -0.0160
     17 C          64.6307   88.1361   14.1807 C.ar    1  UNL1       -0.0039
     18 C          65.1666   87.1325   15.1582 C.ar    1  UNL1       -0.0006
     19 C          64.7023   85.7073   15.1005 C.ar    1  UNL1       -0.0043
     20 C          63.7020   85.2858   14.0652 C.ar    1  UNL1       -0.0222
     21 C          63.2377   83.8606   14.0075 C.3     1  UNL1        0.0310
     22 C          63.1660   86.2894   13.0877 C.ar    1  UNL1       -0.0081
     23 C          63.5494   90.1460   12.2337 C.3     1  UNL1        0.1202
     24 O          63.7037   90.1655   10.7418 O.3     1  UNL1       -0.3818
     25 H          64.5017   90.6638   10.5058 H       1  UNL1        0.2107
     26 C          63.3951   90.1265   13.7256 C.ar    1  UNL1        0.0556
     27 C          62.1547   89.5527   14.3439 C.ar    1  UNL1        0.0042
     28 C          62.0005   89.5332   15.8358 C.ar    1  UNL1        0.0206
     29 C          63.0865   90.0875   16.7094 C.ar    1  UNL1        0.1020
     30 N          64.3268   90.6613   16.0912 N.ar    1  UNL1       -0.2103
     31 C          64.4812   90.6809   14.5992 C.ar    1  UNL1        0.2229
     32 O          65.7215   91.2546   13.9810 O.3     1  UNL1       -0.4563
     33 C          66.8767   91.6547   14.8501 C.3     1  UNL1        0.2542
     34 C          64.0043   91.5739   12.2994 C.3     1  UNL1        0.0493
     35 C          64.5756   92.2358   11.0806 C.3     1  UNL1        0.0750
     36 N          65.9059   92.9249   11.1555 N.3     1  UNL1       -0.2702
     37 C          66.0790   94.1278   12.0348 C.3     1  UNL1        0.0897
     38 C          67.0630   92.4112   10.3511 C.3     1  UNL1        0.0897
@<TRIPOS>BOND
     1    12    13    1
     2    13     2    1
     3     2     3   ar
     4     3     4   ar
     5     4     5   ar
     6     5     6   ar
     7     6     7   ar
     8     7    14    1
     9    14    15    3
    10     7     8   ar
    11     8     9   ar
    12     9    10   ar
    13    10    11   ar
    14    11     1    1
    15     1    16    1
    16    16    17   ar
    17    17    18   ar
    18    18    19   ar
    19    19    20   ar
    20    20    21    1
    21    20    22   ar
    22     1    23    1
    23    23    24    1
    24    23    34    1
    25    34    35    1
    26    35    36    1
    27    36    37    1
    28    36    38    1
    29    23    26    1
    30    26    27   ar
    31    27    28   ar
    32    28    29   ar
    33    29    30   ar
    34    30    31   ar
    35    31    32    1
    36    32    33    1
    37    11     2   ar
    38    22    16   ar
    39    31    26   ar
    40     9     4   ar
    41    24    25    1
