@<TRIPOS>MOLECULE
*****
 47 50 0 0 0
SMALL
GASTEIGER

@<TRIPOS>ATOM
      1 C          60.2642   88.9179    9.0399 C.2     1  UNL1        0.2491
      2 O          60.0460   90.3151    9.5399 O.2     1  UNL1       -0.2727
      3 N          59.5521   88.4423    7.8083 N.am    1  UNL1       -0.2724
      4 C          58.6219   89.3639    7.0767 C.3     1  UNL1        0.1202
      5 C          59.1413   90.2260    5.9646 C.ar    1  UNL1       -0.0023
      6 C          58.2056   91.1268    5.2142 C.ar    1  UNL1       -0.0026
      7 C          58.7251   91.9889    4.1020 C.ar    1  UNL1       -0.0003
      8 C          60.1803   91.9501    3.7401 C.ar    1  UNL1       -0.0000
      9 C          61.1160   91.0493    4.4905 C.ar    1  UNL1       -0.0003
     10 C          60.5965   90.1873    5.6027 C.ar    1  UNL1       -0.0026
     11 C          60.6997   92.8122    2.6280 C.ar    1  UNL1       -0.0000
     12 C          59.7501   93.6431    1.8170 C.ar    1  UNL1       -0.0001
     13 C          60.2696   94.5052    0.7047 C.ar    1  UNL1        0.0039
     14 C          61.7387   94.5363    0.4035 C.ar    1  UNL1        0.0714
     15 C          62.6884   93.7054    1.2145 C.ar    1  UNL1        0.0039
     16 C          62.1689   92.8433    2.3267 C.ar    1  UNL1       -0.0001
     17 C          62.2582   95.3984   -0.7087 C.3     1  UNL1        0.4186
     18 F          62.7778   96.2604   -1.8208 F       1  UNL1       -0.1659
     19 F          63.6423   95.2993   -0.1390 F       1  UNL1       -0.1659
     20 F          60.8742   95.4975   -1.2784 F       1  UNL1       -0.1659
     21 C          59.7703   87.0450    7.3082 C.3     1  UNL1        0.1111
     22 C          60.5258   86.0576    8.1473 C.3     1  UNL1        0.0939
     23 N          61.6463   85.2632    7.5444 N.3     1  UNL1       -0.2712
     24 C          63.0106   85.2993    8.1666 C.3     1  UNL1        0.0722
     25 C          63.5202   84.1105    8.9262 C.3     1  UNL1        0.0188
     26 C          61.4025   84.4328    6.3193 C.3     1  UNL1        0.0722
     27 C          62.3774   84.4726    5.1800 C.3     1  UNL1        0.0188
     28 C          61.1944   87.9962    9.7714 C.3     1  UNL1        0.1934
     29 C          63.3546   90.5257   11.9359 C.ar    1  UNL1        0.0529
     30 C          62.4587   89.9879   10.8597 C.ar    1  UNL1        0.0782
     31 N          62.0903   88.5340   10.8477 N.ar    1  UNL1       -0.2979
     32 C          62.6176   87.6178   11.9118 C.ar    1  UNL1        0.1750
     33 N          63.5134   88.1555   12.9880 N.ar    1  UNL1       -0.1847
     34 C          63.8819   89.6095   13.0001 C.ar    1  UNL1        0.2783
     35 O          64.7778   90.1473   14.0763 O.2     1  UNL1       -0.2654
     36 S          62.2491   86.1638   11.8998 S.3     1  UNL1       -0.0724
     37 C          63.2641   85.1296   12.2874 C.3     1  UNL1        0.0913
     38 C          62.8197   83.7489   12.6697 C.ar    1  UNL1       -0.0108
     39 C          62.8088   82.6538   11.6446 C.ar    1  UNL1       -0.0011
     40 C          62.3644   81.2731   12.0269 C.ar    1  UNL1        0.0293
     41 C          61.9308   80.9875   13.4342 C.ar    1  UNL1        0.1401
     42 F          61.4864   79.6068   13.8165 F       1  UNL1       -0.2042
     43 C          61.9417   82.0826   14.4592 C.ar    1  UNL1        0.0293
     44 C          62.3861   83.4633   14.0769 C.ar    1  UNL1       -0.0011
     45 C          63.7231   91.9797   11.9480 C.3     1  UNL1        0.0328
     46 C          66.1771   92.7924   12.2068 C.3     1  UNL1        0.0004
     47 C          65.0137   92.4315   11.3315 C.3     1  UNL1        0.0049
@<TRIPOS>BOND
     1    46    47    1
     2    47    45    1
     3    45    29    1
     4    29    30   ar
     5    30    31   ar
     6    31    28    1
     7    28     1    1
     8     1     2    2
     9     1     3   am
    10     3    21    1
    11    21    22    1
    12    22    23    1
    13    23    24    1
    14    24    25    1
    15    23    26    1
    16    26    27    1
    17     3     4    1
    18     4     5    1
    19     5     6   ar
    20     6     7   ar
    21     7     8   ar
    22     8    11    1
    23    11    12   ar
    24    12    13   ar
    25    13    14   ar
    26    14    17    1
    27    17    18    1
    28    17    19    1
    29    17    20    1
    30    14    15   ar
    31    15    16   ar
    32     8     9   ar
    33     9    10   ar
    34    31    32   ar
    35    32    36    1
    36    36    37    1
    37    37    38    1
    38    38    39   ar
    39    39    40   ar
    40    40    41   ar
    41    41    42    1
    42    41    43   ar
    43    43    44   ar
    44    32    33   ar
    45    33    34   ar
    46    34    35    2
    47    34    29   ar
    48    10     5   ar
    49    44    38   ar
    50    16    11   ar
@<TRIPOS>MOLECULE
*****
 47 50 0 0 0
SMALL
GASTEIGER

@<TRIPOS>ATOM
      1 C          62.1658   88.4846   12.3539 C.2     1  UNL1        0.2491
      2 O          61.2981   89.6939   12.5402 O.2     1  UNL1       -0.2727
      3 N          61.7150   87.3687   11.4585 N.am    1  UNL1       -0.2724
      4 C          60.3966   87.4622   10.7494 C.3     1  UNL1        0.1202
      5 C          60.2740   88.2816    9.4990 C.ar    1  UNL1       -0.0023
      6 C          60.9570   89.6138    9.4054 C.ar    1  UNL1       -0.0026
      7 C          60.8344   90.4333    8.1549 C.ar    1  UNL1       -0.0003
      8 C          60.0288   89.9205    6.9982 C.ar    1  UNL1       -0.0000
      9 C          59.3458   88.5883    7.0918 C.ar    1  UNL1       -0.0003
     10 C          59.4684   87.7689    8.3422 C.ar    1  UNL1       -0.0026
     11 C          59.9062   90.7399    5.7478 C.ar    1  UNL1       -0.0000
     12 C          58.5644   91.2522    5.3153 C.ar    1  UNL1       -0.0001
     13 C          58.4419   92.0717    4.0649 C.ar    1  UNL1        0.0039
     14 C          59.6611   92.3788    3.2470 C.ar    1  UNL1        0.0714
     15 C          61.0030   91.8665    3.6794 C.ar    1  UNL1        0.0039
     16 C          61.1256   91.0471    4.9298 C.ar    1  UNL1       -0.0001
     17 C          59.5386   93.1983    1.9965 C.3     1  UNL1        0.4186
     18 F          59.4161   94.0177    0.7462 F       1  UNL1       -0.1659
     19 F          60.1568   94.3683    2.7027 F       1  UNL1       -0.1659
     20 F          58.9204   92.0283    1.2903 F       1  UNL1       -0.1659
     21 C          62.5827   86.1594   11.2723 C.3     1  UNL1        0.1111
     22 C          62.1425   85.0539   10.3591 C.3     1  UNL1        0.0939
     23 N          63.0752   84.5358    9.3048 N.3     1  UNL1       -0.2712
     24 C          64.1037   83.5018    9.6557 C.3     1  UNL1        0.0722
     25 C          64.1483   82.9283   11.0411 C.3     1  UNL1        0.0188
     26 C          62.9795   85.0516    7.8996 C.3     1  UNL1        0.0722
     27 C          61.6370   85.2195    7.2520 C.3     1  UNL1        0.0188
     28 C          63.4842   88.3911   13.0631 C.3     1  UNL1        0.1934
     29 C          65.2852   91.7478   14.1762 C.ar    1  UNL1        0.0529
     30 C          64.8109   90.6100   13.3217 C.ar    1  UNL1        0.0782
     31 N          63.9586   89.5290   13.9177 N.ar    1  UNL1       -0.2979
     32 C          63.5806   89.5860   15.3681 C.ar    1  UNL1        0.1750
     33 N          64.0549   90.7238   16.2226 N.ar    1  UNL1       -0.1847
     34 C          64.9072   91.8048   15.6267 C.ar    1  UNL1        0.2783
     35 O          65.3816   92.9427   16.4812 O.2     1  UNL1       -0.2654
     36 S          62.7283   88.5050   15.9641 S.3     1  UNL1       -0.0724
     37 C          63.3679   87.3687   16.7055 C.3     1  UNL1        0.0913
     38 C          63.5221   86.0324   16.0417 C.ar    1  UNL1       -0.0108
     39 C          62.4848   84.9685   16.2477 C.ar    1  UNL1       -0.0011
     40 C          62.6391   83.6323   15.5839 C.ar    1  UNL1        0.0293
     41 C          63.8305   83.3599   14.7142 C.ar    1  UNL1        0.1401
     42 F          63.9848   82.0236   14.0505 F       1  UNL1       -0.2042
     43 C          64.8677   84.4237   14.5083 C.ar    1  UNL1        0.0293
     44 C          64.7135   85.7600   15.1721 C.ar    1  UNL1       -0.0011
     45 C          66.1375   92.8288   13.5802 C.3     1  UNL1        0.0328
     46 C          66.7817   92.8050   11.0634 C.3     1  UNL1        0.0004
     47 C          65.8936   93.2857   12.1725 C.3     1  UNL1        0.0049
@<TRIPOS>BOND
     1    46    47    1
     2    47    45    1
     3    45    29    1
     4    29    30   ar
     5    30    31   ar
     6    31    28    1
     7    28     1    1
     8     1     2    2
     9     1     3   am
    10     3    21    1
    11    21    22    1
    12    22    23    1
    13    23    24    1
    14    24    25    1
    15    23    26    1
    16    26    27    1
    17     3     4    1
    18     4     5    1
    19     5     6   ar
    20     6     7   ar
    21     7     8   ar
    22     8    11    1
    23    11    12   ar
    24    12    13   ar
    25    13    14   ar
    26    14    17    1
    27    17    18    1
    28    17    19    1
    29    17    20    1
    30    14    15   ar
    31    15    16   ar
    32     8     9   ar
    33     9    10   ar
    34    31    32   ar
    35    32    36    1
    36    36    37    1
    37    37    38    1
    38    38    39   ar
    39    39    40   ar
    40    40    41   ar
    41    41    42    1
    42    41    43   ar
    43    43    44   ar
    44    32    33   ar
    45    33    34   ar
    46    34    35    2
    47    34    29   ar
    48    10     5   ar
    49    44    38   ar
    50    16    11   ar
@<TRIPOS>MOLECULE
*****
 47 50 0 0 0
SMALL
GASTEIGER

@<TRIPOS>ATOM
      1 C          62.0192   88.4107   12.2048 C.2     1  UNL1        0.2491
      2 O          61.2639   89.7056   12.2578 O.2     1  UNL1       -0.2727
      3 N          61.4734   87.2557   11.4186 N.am    1  UNL1       -0.2724
      4 C          60.1723   87.3956   10.6855 C.3     1  UNL1        0.1202
      5 C          60.0990   88.2282    9.4400 C.ar    1  UNL1       -0.0023
      6 C          59.4335   87.6829    8.2113 C.ar    1  UNL1       -0.0026
      7 C          59.3603   88.5156    6.9657 C.ar    1  UNL1       -0.0003
      8 C          59.9526   89.8936    6.9489 C.ar    1  UNL1       -0.0000
      9 C          60.6181   90.4389    8.1776 C.ar    1  UNL1       -0.0003
     10 C          60.6914   89.6063    9.4231 C.ar    1  UNL1       -0.0026
     11 C          59.8793   90.7262    5.7034 C.ar    1  UNL1       -0.0000
     12 C          58.5652   91.2966    5.2588 C.ar    1  UNL1       -0.0001
     13 C          58.4920   92.1293    4.0132 C.ar    1  UNL1        0.0039
     14 C          59.7329   92.3916    3.2124 C.ar    1  UNL1        0.0714
     15 C          61.0470   91.8212    3.6571 C.ar    1  UNL1        0.0039
     16 C          61.1203   90.9886    4.9025 C.ar    1  UNL1       -0.0001
     17 C          59.6597   93.2242    1.9668 C.3     1  UNL1        0.4186
     18 F          59.5865   94.0568    0.7213 F       1  UNL1       -0.1659
     19 F          59.3071   92.0027    1.1710 F       1  UNL1       -0.1659
     20 F          60.0123   94.4458    2.7627 F       1  UNL1       -0.1659
     21 C          62.2287   85.9608   11.3656 C.3     1  UNL1        0.1111
     22 C          61.9762   84.9904   10.2500 C.3     1  UNL1        0.0939
     23 N          63.0951   84.5945    9.3328 N.3     1  UNL1       -0.2712
     24 C          63.1202   85.0971    7.9198 C.3     1  UNL1        0.0722
     25 C          61.9545   84.8400    7.0115 C.3     1  UNL1        0.0188
     26 C          64.1890   83.6958    9.8287 C.3     1  UNL1        0.0722
     27 C          63.8487   82.3808   10.4651 C.3     1  UNL1        0.0188
     28 C          63.3203   88.2708   12.9379 C.3     1  UNL1        0.1934
     29 C          65.1966   91.6494   13.8408 C.ar    1  UNL1        0.0529
     30 C          64.6550   90.4972   13.0476 C.ar    1  UNL1        0.0782
     31 N          63.8619   89.4230   13.7312 N.ar    1  UNL1       -0.2979
     32 C          63.6104   89.5011   15.2078 C.ar    1  UNL1        0.1750
     33 N          64.1520   90.6533   16.0010 N.ar    1  UNL1       -0.1847
     34 C          64.9451   91.7274   15.3174 C.ar    1  UNL1        0.2783
     35 O          65.4867   92.8796   16.1106 O.2     1  UNL1       -0.2654
     36 S          62.8173   88.4270   15.8914 S.3     1  UNL1       -0.0724
     37 C          63.5229   87.2898   16.5689 C.3     1  UNL1        0.0913
     38 C          63.6536   85.9672   15.8735 C.ar    1  UNL1       -0.0108
     39 C          62.6165   84.9039   16.0831 C.ar    1  UNL1       -0.0011
     40 C          62.7472   83.5813   15.3876 C.ar    1  UNL1        0.0293
     41 C          63.9151   83.3220   14.4826 C.ar    1  UNL1        0.1401
     42 F          64.0458   81.9994   13.7872 F       1  UNL1       -0.2042
     43 C          64.9521   84.3853   14.2730 C.ar    1  UNL1        0.0293
     44 C          64.8213   85.7079   14.9685 C.ar    1  UNL1       -0.0011
     45 C          65.9897   92.7235   13.1572 C.3     1  UNL1        0.0328
     46 C          66.0744   94.0065   10.8997 C.3     1  UNL1        0.0004
     47 C          66.1300   92.7170   11.6638 C.3     1  UNL1        0.0049
@<TRIPOS>BOND
     1    46    47    1
     2    47    45    1
     3    45    29    1
     4    29    30   ar
     5    30    31   ar
     6    31    28    1
     7    28     1    1
     8     1     2    2
     9     1     3   am
    10     3    21    1
    11    21    22    1
    12    22    23    1
    13    23    24    1
    14    24    25    1
    15    23    26    1
    16    26    27    1
    17     3     4    1
    18     4     5    1
    19     5     6   ar
    20     6     7   ar
    21     7     8   ar
    22     8    11    1
    23    11    12   ar
    24    12    13   ar
    25    13    14   ar
    26    14    17    1
    27    17    18    1
    28    17    19    1
    29    17    20    1
    30    14    15   ar
    31    15    16   ar
    32     8     9   ar
    33     9    10   ar
    34    31    32   ar
    35    32    36    1
    36    36    37    1
    37    37    38    1
    38    38    39   ar
    39    39    40   ar
    40    40    41   ar
    41    41    42    1
    42    41    43   ar
    43    43    44   ar
    44    32    33   ar
    45    33    34   ar
    46    34    35    2
    47    34    29   ar
    48    10     5   ar
    49    44    38   ar
    50    16    11   ar
@<TRIPOS>MOLECULE
*****
 47 50 0 0 0
SMALL
GASTEIGER

@<TRIPOS>ATOM
      1 C          63.7635   90.1485   15.8588 C.2     1  UNL1        0.2491
      2 O          63.5170   90.1833   17.3380 O.2     1  UNL1       -0.2727
      3 N          63.6935   88.8465   15.1172 N.am    1  UNL1       -0.2724
      4 C          63.3771   87.5793   15.8548 C.3     1  UNL1        0.1202
      5 C          63.2896   86.2801   15.1103 C.ar    1  UNL1       -0.0023
      6 C          64.3500   85.9131   14.1150 C.ar    1  UNL1       -0.0026
      7 C          64.2625   84.6138   13.3705 C.ar    1  UNL1       -0.0003
      8 C          63.1145   83.6815   13.6214 C.ar    1  UNL1       -0.0000
      9 C          62.0540   84.0485   14.6168 C.ar    1  UNL1       -0.0003
     10 C          62.1416   85.3477   15.3612 C.ar    1  UNL1       -0.0026
     11 C          63.0270   82.3823   12.8769 C.ar    1  UNL1       -0.0000
     12 C          62.6877   81.1188   13.6107 C.ar    1  UNL1       -0.0001
     13 C          62.6002   79.8195   12.8662 C.ar    1  UNL1        0.0039
     14 C          62.8520   79.7837   11.3879 C.ar    1  UNL1        0.0714
     15 C          63.1913   81.0472   10.6541 C.ar    1  UNL1        0.0039
     16 C          63.2788   82.3465   11.3986 C.ar    1  UNL1       -0.0001
     17 C          62.7645   78.4844   10.6434 C.3     1  UNL1        0.4186
     18 F          62.6770   77.1852    9.8989 F       1  UNL1       -0.1659
     19 F          62.7895   77.7375   11.9439 F       1  UNL1       -0.1659
     20 F          62.7394   79.2313    9.3428 F       1  UNL1       -0.1659
     21 C          63.9400   88.8117   13.6380 C.3     1  UNL1        0.1111
     22 C          63.0048   89.5221   12.7049 C.3     1  UNL1        0.0939
     23 N          62.1302   88.7337   11.7756 N.3     1  UNL1       -0.2712
     24 C          62.6000   87.4121   11.2440 C.3     1  UNL1        0.0722
     25 C          61.7256   86.1998   11.3689 C.3     1  UNL1        0.0188
     26 C          60.7858   89.2670   11.3778 C.3     1  UNL1        0.0722
     27 C          60.3936   89.3083    9.9306 C.3     1  UNL1        0.0188
     28 C          64.0799   91.4157   15.1211 C.3     1  UNL1        0.1934
     29 C          67.9844   92.0686   15.4018 C.ar    1  UNL1        0.0529
     30 C          66.5681   91.7581   15.7859 C.ar    1  UNL1        0.0782
     31 N          65.4963   91.7262   14.7370 N.ar    1  UNL1       -0.2979
     32 C          65.8408   92.0048   13.3039 C.ar    1  UNL1        0.1750
     33 N          67.2571   92.3153   12.9198 N.ar    1  UNL1       -0.1847
     34 C          68.3289   92.3472   13.9688 C.ar    1  UNL1        0.2783
     35 O          69.7453   92.6577   13.5846 O.2     1  UNL1       -0.2654
     36 S          64.7690   91.9729   12.2550 S.3     1  UNL1       -0.0724
     37 C          65.1362   92.0751   10.8042 C.3     1  UNL1        0.0913
     38 C          65.8940   93.2692   10.3047 C.ar    1  UNL1       -0.0108
     39 C          67.1607   93.0807    9.5236 C.ar    1  UNL1       -0.0011
     40 C          67.9185   94.2749    9.0240 C.ar    1  UNL1        0.0293
     41 C          67.4097   95.6576    9.3055 C.ar    1  UNL1        0.1401
     42 F          68.1675   96.8518    8.8059 F       1  UNL1       -0.2042
     43 C          66.1431   95.8461   10.0865 C.ar    1  UNL1        0.0293
     44 C          65.3852   94.6519   10.5861 C.ar    1  UNL1       -0.0011
     45 C          69.0562   92.1005   16.4507 C.3     1  UNL1        0.0328
     46 C          69.3817   94.6768   16.3697 C.3     1  UNL1        0.0004
     47 C          69.9445   93.3023   16.5790 C.3     1  UNL1        0.0049
@<TRIPOS>BOND
     1    46    47    1
     2    47    45    1
     3    45    29    1
     4    29    30   ar
     5    30    31   ar
     6    31    28    1
     7    28     1    1
     8     1     2    2
     9     1     3   am
    10     3    21    1
    11    21    22    1
    12    22    23    1
    13    23    24    1
    14    24    25    1
    15    23    26    1
    16    26    27    1
    17     3     4    1
    18     4     5    1
    19     5     6   ar
    20     6     7   ar
    21     7     8   ar
    22     8    11    1
    23    11    12   ar
    24    12    13   ar
    25    13    14   ar
    26    14    17    1
    27    17    18    1
    28    17    19    1
    29    17    20    1
    30    14    15   ar
    31    15    16   ar
    32     8     9   ar
    33     9    10   ar
    34    31    32   ar
    35    32    36    1
    36    36    37    1
    37    37    38    1
    38    38    39   ar
    39    39    40   ar
    40    40    41   ar
    41    41    42    1
    42    41    43   ar
    43    43    44   ar
    44    32    33   ar
    45    33    34   ar
    46    34    35    2
    47    34    29   ar
    48    10     5   ar
    49    44    38   ar
    50    16    11   ar
@<TRIPOS>MOLECULE
*****
 47 50 0 0 0
SMALL
GASTEIGER

@<TRIPOS>ATOM
      1 C          62.1695   85.3737   11.6765 C.2     1  UNL1        0.2491
      2 O          61.8481   85.5897   13.1257 O.2     1  UNL1       -0.2727
      3 N          62.1064   86.5231   10.7148 N.am    1  UNL1       -0.2724
      4 C          61.7219   87.8886   11.2023 C.3     1  UNL1        0.1202
      5 C          62.7348   88.7498   11.8968 C.ar    1  UNL1       -0.0023
      6 C          63.0117   90.1357   11.3942 C.ar    1  UNL1       -0.0026
      7 C          64.0247   90.9969   12.0887 C.ar    1  UNL1       -0.0003
      8 C          64.7607   90.4721   13.2857 C.ar    1  UNL1       -0.0000
      9 C          64.4839   89.0862   13.7882 C.ar    1  UNL1       -0.0003
     10 C          63.4710   88.2250   13.0938 C.ar    1  UNL1       -0.0026
     11 C          65.7737   91.3333   13.9801 C.ar    1  UNL1       -0.0000
     12 C          65.5023   91.8423   15.3648 C.ar    1  UNL1       -0.0001
     13 C          66.5153   92.7035   16.0592 C.ar    1  UNL1        0.0039
     14 C          67.7996   93.0557   15.3690 C.ar    1  UNL1        0.0714
     15 C          68.0710   92.5467   13.9844 C.ar    1  UNL1        0.0039
     16 C          67.0581   91.6855   13.2899 C.ar    1  UNL1       -0.0001
     17 C          68.8127   93.9169   16.0635 C.3     1  UNL1        0.4186
     18 F          69.8256   94.7781   16.7578 F       1  UNL1       -0.1659
     19 F          68.1822   95.1400   15.4663 F       1  UNL1       -0.1659
     20 F          69.4431   92.6939   16.6606 F       1  UNL1       -0.1659
     21 C          62.4278   86.3071    9.2657 C.3     1  UNL1        0.1111
     22 C          61.5828   86.9498    8.2061 C.3     1  UNL1        0.0939
     23 N          60.4523   86.1861    7.5827 N.3     1  UNL1       -0.2712
     24 C          60.7013   84.8338    6.9833 C.3     1  UNL1        0.0722
     25 C          61.9334   84.5925    6.1626 C.3     1  UNL1        0.0188
     26 C          59.0728   86.7746    7.5587 C.3     1  UNL1        0.0722
     27 C          58.8931   88.2622    7.4909 C.3     1  UNL1        0.0188
     28 C          62.5540   84.0082   11.1891 C.3     1  UNL1        0.1934
     29 C          61.6969   80.7901   13.3476 C.ar    1  UNL1        0.0529
     30 C          61.5564   81.9221   12.3736 C.ar    1  UNL1        0.0782
     31 N          62.6946   82.8761   12.1631 N.ar    1  UNL1       -0.2979
     32 C          63.9734   82.6981   12.9266 C.ar    1  UNL1        0.1750
     33 N          64.1139   81.5660   13.9006 N.ar    1  UNL1       -0.1847
     34 C          62.9756   80.6120   14.1111 C.ar    1  UNL1        0.2783
     35 O          63.1162   79.4799   15.0851 O.2     1  UNL1       -0.2654
     36 S          65.1116   83.6521   12.7162 S.3     1  UNL1       -0.0724
     37 C          65.6073   84.4914   13.8562 C.3     1  UNL1        0.0913
     38 C          64.6449   84.9948   14.8908 C.ar    1  UNL1       -0.0108
     39 C          63.5624   84.0949   15.4091 C.ar    1  UNL1       -0.0011
     40 C          62.6000   84.5983   16.4437 C.ar    1  UNL1        0.0293
     41 C          62.7201   86.0015   16.9601 C.ar    1  UNL1        0.1401
     42 F          61.7577   86.5049   17.9947 F       1  UNL1       -0.2042
     43 C          63.8025   86.9013   16.4418 C.ar    1  UNL1        0.0293
     44 C          64.7649   86.3980   15.4072 C.ar    1  UNL1       -0.0011
     45 C          60.5586   79.8361   13.5580 C.3     1  UNL1        0.0328
     46 C          58.4167   79.3444   14.9437 C.3     1  UNL1        0.0004
     47 C          59.2903   80.3122   14.2020 C.3     1  UNL1        0.0049
@<TRIPOS>BOND
     1    46    47    1
     2    47    45    1
     3    45    29    1
     4    29    30   ar
     5    30    31   ar
     6    31    28    1
     7    28     1    1
     8     1     2    2
     9     1     3   am
    10     3    21    1
    11    21    22    1
    12    22    23    1
    13    23    24    1
    14    24    25    1
    15    23    26    1
    16    26    27    1
    17     3     4    1
    18     4     5    1
    19     5     6   ar
    20     6     7   ar
    21     7     8   ar
    22     8    11    1
    23    11    12   ar
    24    12    13   ar
    25    13    14   ar
    26    14    17    1
    27    17    18    1
    28    17    19    1
    29    17    20    1
    30    14    15   ar
    31    15    16   ar
    32     8     9   ar
    33     9    10   ar
    34    31    32   ar
    35    32    36    1
    36    36    37    1
    37    37    38    1
    38    38    39   ar
    39    39    40   ar
    40    40    41   ar
    41    41    42    1
    42    41    43   ar
    43    43    44   ar
    44    32    33   ar
    45    33    34   ar
    46    34    35    2
    47    34    29   ar
    48    10     5   ar
    49    44    38   ar
    50    16    11   ar
@<TRIPOS>MOLECULE
*****
 47 50 0 0 0
SMALL
GASTEIGER

@<TRIPOS>ATOM
      1 C          63.3308   89.1797   14.0283 C.2     1  UNL1        0.2491
      2 O          63.4985   87.9929   13.1264 O.2     1  UNL1       -0.2727
      3 N          63.6743   89.0697   15.4843 N.am    1  UNL1       -0.2724
      4 C          64.1855   87.7730   16.0384 C.3     1  UNL1        0.1202
      5 C          63.9730   86.4972   15.2788 C.ar    1  UNL1       -0.0023
      6 C          65.0893   85.9150   14.4633 C.ar    1  UNL1       -0.0026
      7 C          64.8768   84.6391   13.7036 C.ar    1  UNL1       -0.0003
      8 C          63.5480   83.9454   13.7595 C.ar    1  UNL1       -0.0000
      9 C          62.4317   84.5276   14.5750 C.ar    1  UNL1       -0.0003
     10 C          62.6442   85.8034   15.3346 C.ar    1  UNL1       -0.0026
     11 C          63.3355   82.6696   12.9999 C.ar    1  UNL1       -0.0000
     12 C          63.5507   82.6356   11.5158 C.ar    1  UNL1       -0.0001
     13 C          63.3382   81.3597   10.7561 C.ar    1  UNL1        0.0039
     14 C          62.9105   80.1179   11.4806 C.ar    1  UNL1        0.0714
     15 C          62.6954   80.1519   12.9647 C.ar    1  UNL1        0.0039
     16 C          62.9079   81.4277   13.7243 C.ar    1  UNL1       -0.0001
     17 C          62.6980   78.8420   10.7210 C.3     1  UNL1        0.4186
     18 F          62.4856   77.5661    9.9615 F       1  UNL1       -0.1659
     19 F          62.4922   78.1074   12.0125 F       1  UNL1       -0.1659
     20 F          62.9039   79.5765    9.4295 F       1  UNL1       -0.1659
     21 C          63.5066   90.2565   16.3862 C.3     1  UNL1        0.1111
     22 C          64.1008   91.5795   16.0032 C.3     1  UNL1        0.0939
     23 N          65.5849   91.7136   15.8316 N.3     1  UNL1       -0.2712
     24 C          66.3230   90.7739   14.9249 C.3     1  UNL1        0.0722
     25 C          67.6693   91.1555   14.3845 C.3     1  UNL1        0.0188
     26 C          66.3309   92.7874   16.5666 C.3     1  UNL1        0.0722
     27 C          67.6166   93.3231   16.0098 C.3     1  UNL1        0.0188
     28 C          62.8196   90.4765   13.4742 C.3     1  UNL1        0.1934
     29 C          65.5267   92.8753   11.8409 C.ar    1  UNL1        0.0529
     30 C          64.7280   92.1331   12.8710 C.ar    1  UNL1        0.0782
     31 N          63.6183   91.2187   12.4439 N.ar    1  UNL1       -0.2979
     32 C          63.3073   91.0465   10.9867 C.ar    1  UNL1        0.1750
     33 N          64.1059   91.7887    9.9566 N.ar    1  UNL1       -0.1847
     34 C          65.2156   92.7031   10.3837 C.ar    1  UNL1        0.2783
     35 O          66.0143   93.4453    9.3534 O.2     1  UNL1       -0.2654
     36 S          62.1976   90.1321   10.5596 S.3     1  UNL1       -0.0724
     37 C          62.3280   88.6510   10.7577 C.3     1  UNL1        0.0913
     38 C          61.7989   87.7060    9.7198 C.ar    1  UNL1       -0.0108
     39 C          62.6467   86.5637    9.2438 C.ar    1  UNL1       -0.0011
     40 C          62.1177   85.6188    8.2059 C.ar    1  UNL1        0.0293
     41 C          60.7409   85.8161    7.6441 C.ar    1  UNL1        0.1401
     42 F          60.2119   84.8711    6.6062 F       1  UNL1       -0.2042
     43 C          59.8932   86.9584    8.1201 C.ar    1  UNL1        0.0293
     44 C          60.4222   87.9033    9.1580 C.ar    1  UNL1       -0.0011
     45 C          66.6364   93.7897   12.2680 C.3     1  UNL1        0.0328
     46 C          66.0592   96.1382   11.3186 C.3     1  UNL1        0.0004
     47 C          66.3639   95.2483   12.4871 C.3     1  UNL1        0.0049
@<TRIPOS>BOND
     1    46    47    1
     2    47    45    1
     3    45    29    1
     4    29    30   ar
     5    30    31   ar
     6    31    28    1
     7    28     1    1
     8     1     2    2
     9     1     3   am
    10     3    21    1
    11    21    22    1
    12    22    23    1
    13    23    24    1
    14    24    25    1
    15    23    26    1
    16    26    27    1
    17     3     4    1
    18     4     5    1
    19     5     6   ar
    20     6     7   ar
    21     7     8   ar
    22     8    11    1
    23    11    12   ar
    24    12    13   ar
    25    13    14   ar
    26    14    17    1
    27    17    18    1
    28    17    19    1
    29    17    20    1
    30    14    15   ar
    31    15    16   ar
    32     8     9   ar
    33     9    10   ar
    34    31    32   ar
    35    32    36    1
    36    36    37    1
    37    37    38    1
    38    38    39   ar
    39    39    40   ar
    40    40    41   ar
    41    41    42    1
    42    41    43   ar
    43    43    44   ar
    44    32    33   ar
    45    33    34   ar
    46    34    35    2
    47    34    29   ar
    48    10     5   ar
    49    44    38   ar
    50    16    11   ar
@<TRIPOS>MOLECULE
*****
 47 50 0 0 0
SMALL
GASTEIGER

@<TRIPOS>ATOM
      1 C          63.4608   88.8851   14.3238 C.2     1  UNL1        0.2491
      2 O          63.8259   87.7980   13.3570 O.2     1  UNL1       -0.2727
      3 N          63.5800   88.6471   15.8001 N.am    1  UNL1       -0.2724
      4 C          64.0643   87.3220   16.3094 C.3     1  UNL1        0.1202
      5 C          63.8675   86.0843   15.4851 C.ar    1  UNL1       -0.0023
      6 C          62.5641   85.3442   15.5426 C.ar    1  UNL1       -0.0026
      7 C          62.3674   84.1065   14.7182 C.ar    1  UNL1       -0.0003
      8 C          63.4741   83.6090   13.8364 C.ar    1  UNL1       -0.0000
      9 C          64.7776   84.3491   13.7789 C.ar    1  UNL1       -0.0003
     10 C          64.9743   85.5868   14.6032 C.ar    1  UNL1       -0.0026
     11 C          63.2774   82.3714   13.0121 C.ar    1  UNL1       -0.0000
     12 C          62.8030   81.1052   13.6615 C.ar    1  UNL1       -0.0001
     13 C          62.6063   79.8676   12.8371 C.ar    1  UNL1        0.0039
     14 C          62.8840   79.8961   11.3634 C.ar    1  UNL1        0.0714
     15 C          63.3584   81.1623   10.7139 C.ar    1  UNL1        0.0039
     16 C          63.5551   82.3999   11.5382 C.ar    1  UNL1       -0.0001
     17 C          62.6873   78.6584   10.5390 C.3     1  UNL1        0.4186
     18 F          62.4906   77.4209    9.7146 F       1  UNL1       -0.1659
     19 F          62.5723   79.5002    9.3028 F       1  UNL1       -0.1659
     20 F          62.8022   77.8167   11.7752 F       1  UNL1       -0.1659
     21 C          63.2149   89.7342   16.7669 C.3     1  UNL1        0.1111
     22 C          63.1069   91.1535   16.2938 C.3     1  UNL1        0.0939
     23 N          64.2065   92.1292   16.5919 N.3     1  UNL1       -0.2712
     24 C          65.5400   91.9845   15.9206 C.3     1  UNL1        0.0722
     25 C          66.7089   92.7982   16.3913 C.3     1  UNL1        0.0188
     26 C          63.9726   93.2496   17.5614 C.3     1  UNL1        0.0722
     27 C          62.7327   94.0871   17.4549 C.3     1  UNL1        0.0188
     28 C          62.9765   90.2102   13.8145 C.3     1  UNL1        0.1934
     29 C          65.9111   92.2705   12.1133 C.ar    1  UNL1        0.0529
     30 C          65.1138   91.5259   13.1428 C.ar    1  UNL1        0.0782
     31 N          63.7738   90.9549   12.7849 N.ar    1  UNL1       -0.2979
     32 C          63.2309   91.1284   11.3974 C.ar    1  UNL1        0.1750
     33 N          64.0282   91.8730   10.3679 N.ar    1  UNL1       -0.1847
     34 C          65.3682   92.4440   10.7258 C.ar    1  UNL1        0.2783
     35 O          66.1655   93.1886    9.6962 O.2     1  UNL1       -0.2654
     36 S          61.8908   90.5574   11.0394 S.3     1  UNL1       -0.0724
     37 C          61.5789   89.1238   11.3514 C.3     1  UNL1        0.0913
     38 C          61.3235   88.1522   10.2374 C.ar    1  UNL1       -0.0108
     39 C          60.1827   88.3800    9.2904 C.ar    1  UNL1       -0.0011
     40 C          59.9273   87.4085    8.1765 C.ar    1  UNL1        0.0293
     41 C          60.8127   86.2092    8.0095 C.ar    1  UNL1        0.1401
     42 F          60.5573   85.2377    6.8955 F       1  UNL1       -0.2042
     43 C          61.9535   85.9815    8.9564 C.ar    1  UNL1        0.0293
     44 C          62.2089   86.9530   10.0704 C.ar    1  UNL1       -0.0011
     45 C          67.2511   92.8415   12.4713 C.3     1  UNL1        0.0328
     46 C          68.9264   91.9256   14.2332 C.3     1  UNL1        0.0004
     47 C          68.3831   91.9270   12.8351 C.3     1  UNL1        0.0049
@<TRIPOS>BOND
     1    46    47    1
     2    47    45    1
     3    45    29    1
     4    29    30   ar
     5    30    31   ar
     6    31    28    1
     7    28     1    1
     8     1     2    2
     9     1     3   am
    10     3    21    1
    11    21    22    1
    12    22    23    1
    13    23    24    1
    14    24    25    1
    15    23    26    1
    16    26    27    1
    17     3     4    1
    18     4     5    1
    19     5     6   ar
    20     6     7   ar
    21     7     8   ar
    22     8    11    1
    23    11    12   ar
    24    12    13   ar
    25    13    14   ar
    26    14    17    1
    27    17    18    1
    28    17    19    1
    29    17    20    1
    30    14    15   ar
    31    15    16   ar
    32     8     9   ar
    33     9    10   ar
    34    31    32   ar
    35    32    36    1
    36    36    37    1
    37    37    38    1
    38    38    39   ar
    39    39    40   ar
    40    40    41   ar
    41    41    42    1
    42    41    43   ar
    43    43    44   ar
    44    32    33   ar
    45    33    34   ar
    46    34    35    2
    47    34    29   ar
    48    10     5   ar
    49    44    38   ar
    50    16    11   ar
