@<TRIPOS>MOLECULE
*****
 22 24 0 0 0
SMALL
GASTEIGER

@<TRIPOS>ATOM
      1 C          60.1391   89.0596    8.6601 C.3     1  UNL1        0.0310
      2 C          60.8638   87.9535    9.3682 C.ar    1  UNL1       -0.0222
      3 C          60.8957   86.5768    8.7736 C.ar    1  UNL1       -0.0043
      4 C          61.6204   85.4706    9.4817 C.ar    1  UNL1       -0.0009
      5 C          62.3131   85.7413   10.7843 C.ar    1  UNL1       -0.0079
      6 C          62.2811   87.1180   11.3788 C.ar    1  UNL1       -0.0187
      7 C          61.5565   88.2241   10.6708 C.ar    1  UNL1       -0.0082
      8 C          63.0496   87.0848   12.6667 C.3     1  UNL1        0.0480
      9 C          63.5564   85.6874   12.8681 C.2     1  UNL1       -0.0420
     10 C          63.1012   84.8571   11.7047 C.2     1  UNL1       -0.0242
     11 C          63.3845   83.3987   11.4979 C.3     1  UNL1        0.0681
     12 C          64.2682   82.9591   10.3685 C.3     1  UNL1        0.0116
     13 C          62.7840   82.3799   12.4206 C.ar    1  UNL1        0.0919
     14 N          62.0740   82.6681   13.7102 N.ar    1  UNL1       -0.2408
     15 C          61.6393   81.3604   14.3024 C.ar    1  UNL1        0.1061
     16 C          62.0807   80.2638   13.3789 C.ar    1  UNL1        0.0572
     17 S          62.7881   80.8939   12.2159 S.2     1  UNL1       -0.0699
     18 C          64.3748   85.2051   14.0290 C.3     1  UNL1        0.0394
     19 C          64.5196   86.0616   15.2519 C.3     1  UNL1        0.0765
     20 N          63.3453   86.2771   16.1599 N.3     1  UNL1       -0.2700
     21 C          62.3875   85.1540   16.4267 C.3     1  UNL1        0.0897
     22 C          63.1289   87.6157   16.8011 C.3     1  UNL1        0.0897
@<TRIPOS>BOND
     1     1     2    1
     2     2     3   ar
     3     3     4   ar
     4     4     5   ar
     5     5     6   ar
     6     6     7   ar
     7     6     8    1
     8     8     9    1
     9     9    18    1
    10    18    19    1
    11    19    20    1
    12    20    21    1
    13    20    22    1
    14     9    10    2
    15    10    11    1
    16    11    12    1
    17    11    13    1
    18    13    14   ar
    19    14    15   ar
    20    15    16   ar
    21    16    17   ar
    22     7     2   ar
    23    17    13   ar
    24    10     5    1
@<TRIPOS>MOLECULE
*****
 22 24 0 0 0
SMALL
GASTEIGER

@<TRIPOS>ATOM
      1 C          63.9594   83.2141   13.7447 C.3     1  UNL1        0.0310
      2 C          63.9501   84.7138   13.7732 C.ar    1  UNL1       -0.0222
      3 C          64.5588   85.4457   14.9323 C.ar    1  UNL1       -0.0043
      4 C          64.5495   86.9454   14.9608 C.ar    1  UNL1       -0.0009
      5 C          63.9314   87.7132   13.8302 C.ar    1  UNL1       -0.0079
      6 C          63.3227   86.9813   12.6710 C.ar    1  UNL1       -0.0187
      7 C          63.3320   85.4816   12.6425 C.ar    1  UNL1       -0.0082
      8 C          62.7900   88.0002   11.7076 C.3     1  UNL1        0.0480
      9 C          63.0696   89.3618   12.2713 C.2     1  UNL1       -0.0420
     10 C          63.7750   89.1844   13.5832 C.2     1  UNL1       -0.0242
     11 C          64.2421   90.2850   14.4890 C.3     1  UNL1        0.0681
     12 C          63.6509   90.4297   15.8600 C.3     1  UNL1        0.0116
     13 C          65.3003   91.2409   14.0239 C.ar    1  UNL1        0.0919
     14 N          65.1102   92.3551   13.0377 N.ar    1  UNL1       -0.2408
     15 C          66.4268   93.0533   12.8675 C.ar    1  UNL1        0.1061
     16 C          67.4307   92.3707   13.7487 C.ar    1  UNL1        0.0572
     17 S          66.7346   91.2507   14.4633 S.2     1  UNL1       -0.0699
     18 C          62.7073   90.6710   11.6350 C.3     1  UNL1        0.0394
     19 C          61.9169   90.6920   10.3603 C.3     1  UNL1        0.0765
     20 N          60.5336   90.1132   10.3260 N.3     1  UNL1       -0.2700
     21 C          59.5295   90.5073   11.3683 C.3     1  UNL1        0.0897
     22 C          60.1543   89.1401    9.2493 C.3     1  UNL1        0.0897
@<TRIPOS>BOND
     1     1     2    1
     2     2     3   ar
     3     3     4   ar
     4     4     5   ar
     5     5     6   ar
     6     6     7   ar
     7     6     8    1
     8     8     9    1
     9     9    18    1
    10    18    19    1
    11    19    20    1
    12    20    21    1
    13    20    22    1
    14     9    10    2
    15    10    11    1
    16    11    12    1
    17    11    13    1
    18    13    14   ar
    19    14    15   ar
    20    15    16   ar
    21    16    17   ar
    22     7     2   ar
    23    17    13   ar
    24    10     5    1
@<TRIPOS>MOLECULE
*****
 22 24 0 0 0
SMALL
GASTEIGER

@<TRIPOS>ATOM
      1 C          61.0805   88.6173    9.4538 C.3     1  UNL1        0.0310
      2 C          62.0160   89.3356   10.3806 C.ar    1  UNL1       -0.0222
      3 C          62.1985   88.8487   11.7876 C.ar    1  UNL1       -0.0043
      4 C          63.1340   89.5669   12.7144 C.ar    1  UNL1       -0.0009
      5 C          63.8870   90.7721   12.2342 C.ar    1  UNL1       -0.0079
      6 C          63.7044   91.2590   10.8273 C.ar    1  UNL1       -0.0187
      7 C          62.7689   90.5407    9.9005 C.ar    1  UNL1       -0.0082
      8 C          64.5752   92.4656   10.6377 C.3     1  UNL1        0.0480
      9 C          65.2958   92.7244   11.9275 C.2     1  UNL1       -0.0420
     10 C          64.8705   91.6778   12.9142 C.2     1  UNL1       -0.0242
     11 C          65.3453   91.5578   14.3320 C.3     1  UNL1        0.0681
     12 C          64.4636   90.9247   15.3672 C.3     1  UNL1        0.0116
     13 C          66.7019   92.0709   14.7146 C.ar    1  UNL1        0.0919
     14 N          67.9971   91.7267   14.0408 N.ar    1  UNL1       -0.2408
     15 C          69.0971   92.4613   14.7479 C.ar    1  UNL1        0.1061
     16 C          68.4819   93.2597   15.8588 C.ar    1  UNL1        0.0572
     17 S          67.0016   93.0184   15.8383 S.2     1  UNL1       -0.0699
     18 C          66.2707   93.8350   12.1854 C.3     1  UNL1        0.0394
     19 C          66.2810   95.0449   11.2988 C.3     1  UNL1        0.0765
     20 N          67.1651   95.0797   10.0876 N.3     1  UNL1       -0.2700
     21 C          67.8992   93.8438    9.6591 C.3     1  UNL1        0.0897
     22 C          67.3152   96.3504    9.3049 C.3     1  UNL1        0.0897
@<TRIPOS>BOND
     1     1     2    1
     2     2     3   ar
     3     3     4   ar
     4     4     5   ar
     5     5     6   ar
     6     6     7   ar
     7     6     8    1
     8     8     9    1
     9     9    18    1
    10    18    19    1
    11    19    20    1
    12    20    21    1
    13    20    22    1
    14     9    10    2
    15    10    11    1
    16    11    12    1
    17    11    13    1
    18    13    14   ar
    19    14    15   ar
    20    15    16   ar
    21    16    17   ar
    22     7     2   ar
    23    17    13   ar
    24    10     5    1
@<TRIPOS>MOLECULE
*****
 22 24 0 0 0
SMALL
GASTEIGER

@<TRIPOS>ATOM
      1 C          64.6780   91.2991   14.8114 C.3     1  UNL1        0.0310
      2 C          64.3114   89.9638   14.2348 C.ar    1  UNL1       -0.0222
      3 C          63.6690   89.8819   12.8818 C.ar    1  UNL1       -0.0043
      4 C          63.3024   88.5465   12.3052 C.ar    1  UNL1       -0.0009
      5 C          63.5781   87.2931   13.0816 C.ar    1  UNL1       -0.0079
      6 C          64.2204   87.3750   14.4346 C.ar    1  UNL1       -0.0187
      7 C          64.5871   88.7104   15.0112 C.ar    1  UNL1       -0.0082
      8 C          64.3690   85.9788   14.9626 C.3     1  UNL1        0.0480
      9 C          63.8185   85.0340   13.9358 C.2     1  UNL1       -0.0420
     10 C          63.3297   85.8463   12.7733 C.2     1  UNL1       -0.0242
     11 C          62.7026   85.3066   11.5222 C.3     1  UNL1        0.0681
     12 C          62.9992   83.9045   11.0792 C.3     1  UNL1        0.0116
     13 C          61.7788   86.1688   10.7140 C.ar    1  UNL1        0.0919
     14 N          60.6390   86.9837   11.2497 N.ar    1  UNL1       -0.2408
     15 C          59.9884   87.6861   10.0952 C.ar    1  UNL1        0.1061
     16 C          60.7260   87.3053    8.8457 C.ar    1  UNL1        0.0572
     17 S          61.8325   86.3676    9.2282 S.2     1  UNL1       -0.0699
     18 C          63.7660   83.5394   14.0512 C.3     1  UNL1        0.0394
     19 C          62.4973   82.8645   14.4813 C.3     1  UNL1        0.0765
     20 N          62.1379   81.5187   13.9249 N.3     1  UNL1       -0.2700
     21 C          60.7691   80.9515   14.1591 C.3     1  UNL1        0.0897
     22 C          63.1472   80.7401   13.1342 C.3     1  UNL1        0.0897
@<TRIPOS>BOND
     1     1     2    1
     2     2     3   ar
     3     3     4   ar
     4     4     5   ar
     5     5     6   ar
     6     6     7   ar
     7     6     8    1
     8     8     9    1
     9     9    18    1
    10    18    19    1
    11    19    20    1
    12    20    21    1
    13    20    22    1
    14     9    10    2
    15    10    11    1
    16    11    12    1
    17    11    13    1
    18    13    14   ar
    19    14    15   ar
    20    15    16   ar
    21    16    17   ar
    22     7     2   ar
    23    17    13   ar
    24    10     5    1
@<TRIPOS>MOLECULE
*****
 22 24 0 0 0
SMALL
GASTEIGER

@<TRIPOS>ATOM
      1 C          64.2360   83.5283   14.9630 C.3     1  UNL1        0.0310
      2 C          63.9785   84.8385   14.2795 C.ar    1  UNL1       -0.0222
      3 C          64.5371   86.1066   14.8538 C.ar    1  UNL1       -0.0043
      4 C          64.2796   87.4167   14.1702 C.ar    1  UNL1       -0.0009
      5 C          63.4635   87.4588   12.9124 C.ar    1  UNL1       -0.0079
      6 C          62.9049   86.1907   12.3381 C.ar    1  UNL1       -0.0187
      7 C          63.1624   84.8805   13.0217 C.ar    1  UNL1       -0.0082
      8 C          62.1428   86.5413   11.0946 C.3     1  UNL1        0.0480
      9 C          62.2304   88.0260   10.9004 C.2     1  UNL1       -0.0420
     10 C          63.0467   88.5931   12.0239 C.2     1  UNL1       -0.0242
     11 C          63.3864   90.0403   12.2237 C.3     1  UNL1        0.0681
     12 C          63.2828   91.0005   11.0759 C.3     1  UNL1        0.0116
     13 C          63.8298   90.5275   13.5713 C.ar    1  UNL1        0.0919
     14 N          63.0580   90.4036   14.8515 N.ar    1  UNL1       -0.2408
     15 C          63.8739   91.0236   15.9467 C.ar    1  UNL1        0.1061
     16 C          65.1503   91.5309   15.3434 C.ar    1  UNL1        0.0572
     17 S          65.1230   91.2243   13.8754 S.2     1  UNL1       -0.0699
     18 C          61.6105   88.8068    9.7795 C.3     1  UNL1        0.0394
     19 C          60.1372   88.7024    9.5179 C.3     1  UNL1        0.0765
     20 N          59.6445   88.1952    8.1950 N.3     1  UNL1       -0.2700
     21 C          59.3853   89.1561    7.0727 C.3     1  UNL1        0.0897
     22 C          59.4109   86.7272    7.9945 C.3     1  UNL1        0.0897
@<TRIPOS>BOND
     1     1     2    1
     2     2     3   ar
     3     3     4   ar
     4     4     5   ar
     5     5     6   ar
     6     6     7   ar
     7     6     8    1
     8     8     9    1
     9     9    18    1
    10    18    19    1
    11    19    20    1
    12    20    21    1
    13    20    22    1
    14     9    10    2
    15    10    11    1
    16    11    12    1
    17    11    13    1
    18    13    14   ar
    19    14    15   ar
    20    15    16   ar
    21    16    17   ar
    22     7     2   ar
    23    17    13   ar
    24    10     5    1
@<TRIPOS>MOLECULE
*****
 22 24 0 0 0
SMALL
GASTEIGER

@<TRIPOS>ATOM
      1 C          64.2507   83.5177   14.9700 C.3     1  UNL1        0.0310
      2 C          63.9819   84.8153   14.2672 C.ar    1  UNL1       -0.0222
      3 C          63.3087   84.8167   12.9268 C.ar    1  UNL1       -0.0043
      4 C          63.0398   86.1143   12.2240 C.ar    1  UNL1       -0.0009
      5 C          63.4442   87.4104   12.8615 C.ar    1  UNL1       -0.0079
      6 C          64.1175   87.4090   14.2019 C.ar    1  UNL1       -0.0187
      7 C          64.3863   86.1114   14.9048 C.ar    1  UNL1       -0.0082
      8 C          64.4000   88.8327   14.5804 C.3     1  UNL1        0.0480
      9 C          63.9013   89.7141   13.4738 C.2     1  UNL1       -0.0420
     10 C          63.3106   88.8351   12.4115 C.2     1  UNL1       -0.0242
     11 C          62.6945   89.2992   11.1251 C.3     1  UNL1        0.0681
     12 C          63.0241   90.6586   10.5832 C.3     1  UNL1        0.0116
     13 C          61.7489   88.4041   10.3804 C.ar    1  UNL1        0.0919
     14 N          62.1166   87.4542    9.2792 N.ar    1  UNL1       -0.2408
     15 C          60.8647   86.7647    8.8244 C.ar    1  UNL1        0.1061
     16 C          59.7230   87.2884    9.6445 C.ar    1  UNL1        0.0572
     17 S          60.2695   88.3015   10.6062 S.2     1  UNL1       -0.0699
     18 C          63.9796   91.2116   13.4361 C.3     1  UNL1        0.0394
     19 C          65.2717   91.8864   13.0823 C.3     1  UNL1        0.0765
     20 N          66.3212   92.0952   14.1334 N.3     1  UNL1       -0.2700
     21 C          65.9179   92.3886   15.5481 C.3     1  UNL1        0.0897
     22 C          67.7740   92.0104   13.7698 C.3     1  UNL1        0.0897
@<TRIPOS>BOND
     1     1     2    1
     2     2     3   ar
     3     3     4   ar
     4     4     5   ar
     5     5     6   ar
     6     6     7   ar
     7     6     8    1
     8     8     9    1
     9     9    18    1
    10    18    19    1
    11    19    20    1
    12    20    21    1
    13    20    22    1
    14     9    10    2
    15    10    11    1
    16    11    12    1
    17    11    13    1
    18    13    14   ar
    19    14    15   ar
    20    15    16   ar
    21    16    17   ar
    22     7     2   ar
    23    17    13   ar
    24    10     5    1
@<TRIPOS>MOLECULE
*****
 22 24 0 0 0
SMALL
GASTEIGER

@<TRIPOS>ATOM
      1 C          66.6100   94.8305   11.4856 C.3     1  UNL1        0.0310
      2 C          65.8515   93.5667   11.7641 C.ar    1  UNL1       -0.0222
      3 C          64.9493   92.9869   10.7154 C.ar    1  UNL1       -0.0043
      4 C          64.1908   91.7231   10.9939 C.ar    1  UNL1       -0.0009
      5 C          64.3345   91.0391   12.3210 C.ar    1  UNL1       -0.0079
      6 C          65.2367   91.6189   13.3697 C.ar    1  UNL1       -0.0187
      7 C          65.9952   92.8827   13.0913 C.ar    1  UNL1       -0.0082
      8 C          65.1780   90.7285   14.5755 C.3     1  UNL1        0.0480
      9 C          64.2395   89.5985   14.2720 C.2     1  UNL1       -0.0420
     10 C          63.7182   89.7904   12.8786 C.2     1  UNL1       -0.0242
     11 C          62.7505   88.8915   12.1677 C.3     1  UNL1        0.0681
     12 C          63.0959   87.4501   11.9375 C.3     1  UNL1        0.0116
     13 C          61.4373   89.4340   11.6868 C.ar    1  UNL1        0.0919
     14 N          60.2485   89.7540   12.5439 N.ar    1  UNL1       -0.2408
     15 C          59.1588   90.2694   11.6514 C.ar    1  UNL1        0.1061
     16 C          59.6740   90.2680   10.2426 C.ar    1  UNL1        0.0572
     17 S          61.0821   89.7517   10.2645 S.2     1  UNL1       -0.0699
     18 C          63.8845   88.4738   15.1990 C.3     1  UNL1        0.0394
     19 C          64.4556   87.1056   14.9714 C.3     1  UNL1        0.0765
     20 N          63.6838   85.8909   15.3940 N.3     1  UNL1       -0.2700
     21 C          63.6365   84.6849   14.5033 C.3     1  UNL1        0.0897
     22 C          62.9591   85.8822   16.7073 C.3     1  UNL1        0.0897
@<TRIPOS>BOND
     1     1     2    1
     2     2     3   ar
     3     3     4   ar
     4     4     5   ar
     5     5     6   ar
     6     6     7   ar
     7     6     8    1
     8     8     9    1
     9     9    18    1
    10    18    19    1
    11    19    20    1
    12    20    21    1
    13    20    22    1
    14     9    10    2
    15    10    11    1
    16    11    12    1
    17    11    13    1
    18    13    14   ar
    19    14    15   ar
    20    15    16   ar
    21    16    17   ar
    22     7     2   ar
    23    17    13   ar
    24    10     5    1
@<TRIPOS>MOLECULE
*****
 22 24 0 0 0
SMALL
GASTEIGER

@<TRIPOS>ATOM
      1 C          65.0256   91.4823   15.3854 C.3     1  UNL1        0.0310
      2 C          64.5067   90.3470   14.5536 C.ar    1  UNL1       -0.0222
      3 C          64.7406   88.9306   14.9884 C.ar    1  UNL1       -0.0043
      4 C          64.2217   87.7953   14.1566 C.ar    1  UNL1       -0.0009
      5 C          63.4690   88.0764   12.8900 C.ar    1  UNL1       -0.0079
      6 C          63.2350   89.4928   12.4553 C.ar    1  UNL1       -0.0187
      7 C          63.7539   90.6281   13.2871 C.ar    1  UNL1       -0.0082
      8 C          62.4644   89.4615   11.1686 C.3     1  UNL1        0.0480
      9 C          62.2221   88.0258   10.8083 C.2     1  UNL1       -0.0420
     10 C          62.8430   87.1697   11.8722 C.2     1  UNL1       -0.0242
     11 C          62.8386   85.6703   11.9113 C.3     1  UNL1        0.0681
     12 C          62.5618   84.8882   10.6616 C.3     1  UNL1        0.0116
     13 C          63.1109   84.9528   13.2001 C.ar    1  UNL1        0.0919
     14 N          62.1769   84.8561   14.3699 N.ar    1  UNL1       -0.2408
     15 C          62.8537   84.0497   15.4382 C.ar    1  UNL1        0.1061
     16 C          64.2062   83.6479   14.9288 C.ar    1  UNL1        0.0572
     17 S          64.3652   84.2060   13.5456 S.2     1  UNL1       -0.0699
     18 C          61.4879   87.5326    9.5968 C.3     1  UNL1        0.0394
     19 C          60.0615   87.9365    9.3682 C.3     1  UNL1        0.0765
     20 N          59.4592   87.8203    7.9994 N.3     1  UNL1       -0.2700
     21 C          59.3531   89.0319    7.1214 C.3     1  UNL1        0.0897
     22 C          58.9631   86.4926    7.5085 C.3     1  UNL1        0.0897
@<TRIPOS>BOND
     1     1     2    1
     2     2     3   ar
     3     3     4   ar
     4     4     5   ar
     5     5     6   ar
     6     6     7   ar
     7     6     8    1
     8     8     9    1
     9     9    18    1
    10    18    19    1
    11    19    20    1
    12    20    21    1
    13    20    22    1
    14     9    10    2
    15    10    11    1
    16    11    12    1
    17    11    13    1
    18    13    14   ar
    19    14    15   ar
    20    15    16   ar
    21    16    17   ar
    22     7     2   ar
    23    17    13   ar
    24    10     5    1
@<TRIPOS>MOLECULE
*****
 22 24 0 0 0
SMALL
GASTEIGER

@<TRIPOS>ATOM
      1 C          60.4814   86.4441    7.9204 C.3     1  UNL1        0.0310
      2 C          61.2365   86.4970    9.2155 C.ar    1  UNL1       -0.0222
      3 C          61.6040   85.2259    9.9218 C.ar    1  UNL1       -0.0043
      4 C          62.3590   85.2788   11.2169 C.ar    1  UNL1       -0.0009
      5 C          62.7465   86.6029   11.8055 C.ar    1  UNL1       -0.0079
      6 C          62.3790   87.8740   11.0992 C.ar    1  UNL1       -0.0187
      7 C          61.6239   87.8211    9.8041 C.ar    1  UNL1       -0.0082
      8 C          62.8928   89.0231   11.9152 C.3     1  UNL1        0.0480
      9 C          63.5778   88.4620   13.1259 C.2     1  UNL1       -0.0420
     10 C          63.4874   86.9662   13.0581 C.2     1  UNL1       -0.0242
     11 C          64.0408   86.0029   14.0660 C.3     1  UNL1        0.0681
     12 C          65.0571   86.4664   15.0672 C.3     1  UNL1        0.0116
     13 C          63.5780   84.5761   14.0727 C.ar    1  UNL1        0.0919
     14 N          64.2312   83.4339   13.3524 N.ar    1  UNL1       -0.2408
     15 C          63.4378   82.1929   13.6353 C.ar    1  UNL1        0.1061
     16 C          62.2941   82.5680   14.5305 C.ar    1  UNL1        0.0572
     17 S          62.3807   84.0409   14.8008 S.2     1  UNL1       -0.0699
     18 C          64.2375   89.2570   14.2135 C.3     1  UNL1        0.0394
     19 C          63.9575   90.7248   14.3448 C.3     1  UNL1        0.0765
     20 N          65.0338   91.7239   14.0395 N.3     1  UNL1       -0.2700
     21 C          65.9820   92.1579   15.1177 C.3     1  UNL1        0.0897
     22 C          65.1618   92.2891   12.6560 C.3     1  UNL1        0.0897
@<TRIPOS>BOND
     1     1     2    1
     2     2     3   ar
     3     3     4   ar
     4     4     5   ar
     5     5     6   ar
     6     6     7   ar
     7     6     8    1
     8     8     9    1
     9     9    18    1
    10    18    19    1
    11    19    20    1
    12    20    21    1
    13    20    22    1
    14     9    10    2
    15    10    11    1
    16    11    12    1
    17    11    13    1
    18    13    14   ar
    19    14    15   ar
    20    15    16   ar
    21    16    17   ar
    22     7     2   ar
    23    17    13   ar
    24    10     5    1
