@<TRIPOS>MOLECULE
*****
 28 30 0 0 0
SMALL
GASTEIGER

@<TRIPOS>ATOM
      1 C          63.5735   88.3761   13.4768 C.3     1  UNL1        0.2305
      2 O          63.9320   86.9694   13.8542 O.3     1  UNL1       -0.4679
      3 C          63.5785   85.8342   12.9395 C.ar    1  UNL1        0.1724
      4 C          63.9369   84.4274   13.3169 C.ar    1  UNL1        0.0358
      5 C          63.5835   83.2924   12.4022 C.ar    1  UNL1       -0.0189
      6 C          62.8715   83.5641   11.1102 C.ar    1  UNL1       -0.0009
      7 C          62.5131   84.9709   10.7328 C.ar    1  UNL1        0.0397
      8 C          62.8665   86.1059   11.6475 C.ar    1  UNL1        0.1723
      9 O          62.5081   87.5128   11.2702 O.3     1  UNL1       -0.4694
     10 C          62.8616   88.6479   12.1848 C.3     1  UNL1        0.2389
     11 C          65.3879   91.5888   14.9385 C.ar    1  UNL1        0.1719
     12 C          65.0345   90.4538   14.0238 C.ar    1  UNL1        0.0393
     13 C          63.9270   89.5113   14.3915 C.ar    1  UNL1        0.0241
     14 C          63.1729   89.7039   15.6738 C.ar    1  UNL1        0.0026
     15 C          63.5264   90.8390   16.5885 C.ar    1  UNL1        0.0396
     16 C          64.6338   91.7815   16.2208 C.ar    1  UNL1        0.1677
     17 O          64.9873   92.9166   17.1355 O.3     1  UNL1       -0.5029
     18 H          64.5163   93.0369   17.9365 H       1  UNL1        0.2923
     19 C          67.6008   92.0733   13.6662 C.3     1  UNL1        0.2526
     20 O          66.4954   92.5314   14.5708 O.3     1  UNL1       -0.4684
     21 C          62.5031   90.0547   11.8075 C.3     1  UNL1        0.1850
     22 O          61.0819   90.5218   11.9176 O.3     1  UNL1       -0.3784
     23 H          60.5324   90.0380   11.2813 H       1  UNL1        0.2106
     24 C          63.9419   81.8855   12.7796 C.3     1  UNL1        0.0290
     25 C          62.9294   80.7886   12.6330 C.3     1  UNL1        0.0364
     26 C          61.8835   80.5874   13.6892 C.3     1  UNL1        0.1375
     27 O          61.8564   81.4764   14.8970 O.3     1  UNL1       -0.3820
     28 H          62.6542   81.3252   15.4277 H       1  UNL1        0.2104
@<TRIPOS>BOND
     1    19    20    1
     2    20    11    1
     3    11    12   ar
     4    12    13   ar
     5     1    13    1
     6     1     2    1
     7     2     3    1
     8     3     4   ar
     9     4     5   ar
    10     5    24    1
    11    24    25    1
    12    25    26    1
    13    26    27    1
    14     5     6   ar
    15     6     7   ar
    16     7     8   ar
    17     8     9    1
    18     9    10    1
    19    10    21    1
    20    21    22    1
    21    13    14   ar
    22    14    15   ar
    23    15    16   ar
    24    16    17    1
    25    16    11   ar
    26    10     1    1
    27     8     3   ar
    28    27    28    1
    29    22    23    1
    30    17    18    1
@<TRIPOS>MOLECULE
*****
 28 30 0 0 0
SMALL
GASTEIGER

@<TRIPOS>ATOM
      1 C          64.4975   89.7785   14.8352 C.3     1  UNL1        0.2305
      2 O          64.6668   88.3586   14.3821 O.3     1  UNL1       -0.4679
      3 C          64.0455   87.2416   15.1672 C.ar    1  UNL1        0.1724
      4 C          64.2148   85.8218   14.7142 C.ar    1  UNL1        0.0358
      5 C          63.5935   84.7049   15.4993 C.ar    1  UNL1       -0.0189
      6 C          62.8029   85.0078   16.7375 C.ar    1  UNL1       -0.0009
      7 C          62.6335   86.4277   17.1905 C.ar    1  UNL1        0.0397
      8 C          63.2548   87.5446   16.4054 C.ar    1  UNL1        0.1723
      9 O          63.0855   88.9645   16.8585 O.3     1  UNL1       -0.4694
     10 C          63.7068   90.0814   16.0734 C.3     1  UNL1        0.2389
     11 C          67.0213   92.6361   13.7333 C.ar    1  UNL1        0.1719
     12 C          66.4001   91.5192   14.5184 C.ar    1  UNL1        0.0393
     13 C          65.1188   90.8955   14.0501 C.ar    1  UNL1        0.0241
     14 C          64.4588   91.3888   12.7966 C.ar    1  UNL1        0.0026
     15 C          65.0801   92.5057   12.0115 C.ar    1  UNL1        0.0396
     16 C          66.3613   93.1294   12.4799 C.ar    1  UNL1        0.1677
     17 O          66.9827   94.2464   11.6947 O.3     1  UNL1       -0.5029
     18 H          66.5704   94.5545   10.9118 H       1  UNL1        0.2923
     19 C          68.7170   93.1341   15.6377 C.3     1  UNL1        0.2526
     20 O          68.3026   93.2598   14.2016 O.3     1  UNL1       -0.4684
     21 C          63.5375   91.5014   16.5264 C.3     1  UNL1        0.1850
     22 O          64.6172   92.1669   17.3272 O.3     1  UNL1       -0.3784
     23 H          64.6964   91.7297   18.1895 H       1  UNL1        0.2106
     24 C          63.7628   83.2850   15.0462 C.3     1  UNL1        0.0290
     25 C          63.2067   82.8485   13.7232 C.3     1  UNL1        0.0364
     26 C          64.0249   81.9780   12.8162 C.3     1  UNL1        0.1375
     27 O          65.1016   82.5840   11.9655 O.3     1  UNL1       -0.3820
     28 H          64.7005   83.1727   11.3072 H       1  UNL1        0.2104
@<TRIPOS>BOND
     1    19    20    1
     2    20    11    1
     3    11    12   ar
     4    12    13   ar
     5     1    13    1
     6     1     2    1
     7     2     3    1
     8     3     4   ar
     9     4     5   ar
    10     5    24    1
    11    24    25    1
    12    25    26    1
    13    26    27    1
    14     5     6   ar
    15     6     7   ar
    16     7     8   ar
    17     8     9    1
    18     9    10    1
    19    10    21    1
    20    21    22    1
    21    13    14   ar
    22    14    15   ar
    23    15    16   ar
    24    16    17    1
    25    16    11   ar
    26    10     1    1
    27     8     3   ar
    28    27    28    1
    29    22    23    1
    30    17    18    1
@<TRIPOS>MOLECULE
*****
 28 30 0 0 0
SMALL
GASTEIGER

@<TRIPOS>ATOM
      1 C          62.8807   85.9312   11.9860 C.3     1  UNL1        0.2305
      2 O          63.6134   86.7007   13.0448 O.3     1  UNL1       -0.4679
      3 C          63.6117   88.2005   13.0186 C.ar    1  UNL1        0.1724
      4 C          64.3445   88.9699   14.0773 C.ar    1  UNL1        0.0358
      5 C          64.3428   90.4697   14.0511 C.ar    1  UNL1       -0.0189
      6 C          63.6083   91.2000   12.9661 C.ar    1  UNL1       -0.0009
      7 C          62.8756   90.4305   11.9073 C.ar    1  UNL1        0.0397
      8 C          62.8773   88.9308   11.9336 C.ar    1  UNL1        0.1723
      9 O          62.1445   88.1613   10.8748 O.3     1  UNL1       -0.4694
     10 C          62.1463   86.6615   10.9010 C.3     1  UNL1        0.2389
     11 C          62.2936   82.2013   13.2078 C.ar    1  UNL1        0.1719
     12 C          62.2918   83.7011   13.1817 C.ar    1  UNL1        0.0393
     13 C          62.8824   84.4314   12.0122 C.ar    1  UNL1        0.0241
     14 C          63.4747   83.6620   10.8688 C.ar    1  UNL1        0.0026
     15 C          63.4764   82.1623   10.8950 C.ar    1  UNL1        0.0396
     16 C          62.8858   81.4319   12.0645 C.ar    1  UNL1        0.1677
     17 O          62.8875   79.9321   12.0907 O.3     1  UNL1       -0.5029
     18 H          63.2575   79.4515   11.3765 H       1  UNL1        0.2923
     19 C          60.4319   80.6919   14.2110 C.3     1  UNL1        0.2526
     20 O          61.7030   81.4709   14.3774 O.3     1  UNL1       -0.4684
     21 C          61.4135   85.8920    9.8422 C.3     1  UNL1        0.1850
     22 O          60.3347   86.5591    9.0415 O.3     1  UNL1       -0.3784
     23 H          59.5915   86.7827    9.6233 H       1  UNL1        0.2106
     24 C          65.0755   91.2392   15.1099 C.3     1  UNL1        0.0290
     25 C          66.5089   91.6272   14.8984 C.3     1  UNL1        0.0364
     26 C          66.8466   92.8144   14.0460 C.3     1  UNL1        0.1375
     27 O          66.2238   94.1477   14.3365 O.3     1  UNL1       -0.3820
     28 H          65.2683   94.0999   14.1769 H       1  UNL1        0.2104
@<TRIPOS>BOND
     1    19    20    1
     2    20    11    1
     3    11    12   ar
     4    12    13   ar
     5     1    13    1
     6     1     2    1
     7     2     3    1
     8     3     4   ar
     9     4     5   ar
    10     5    24    1
    11    24    25    1
    12    25    26    1
    13    26    27    1
    14     5     6   ar
    15     6     7   ar
    16     7     8   ar
    17     8     9    1
    18     9    10    1
    19    10    21    1
    20    21    22    1
    21    13    14   ar
    22    14    15   ar
    23    15    16   ar
    24    16    17    1
    25    16    11   ar
    26    10     1    1
    27     8     3   ar
    28    27    28    1
    29    22    23    1
    30    17    18    1
@<TRIPOS>MOLECULE
*****
 28 30 0 0 0
SMALL
GASTEIGER

@<TRIPOS>ATOM
      1 C          63.2346   89.0025   12.8716 C.3     1  UNL1        0.2305
      2 O          62.3776   89.4746   11.7347 O.3     1  UNL1       -0.4679
      3 C          61.7488   88.4789   10.8056 C.ar    1  UNL1        0.1724
      4 C          60.8919   88.9510    9.6687 C.ar    1  UNL1        0.0358
      5 C          60.2631   87.9553    8.7396 C.ar    1  UNL1       -0.0189
      6 C          60.4913   86.4874    8.9476 C.ar    1  UNL1       -0.0009
      7 C          61.3482   86.0153   10.0845 C.ar    1  UNL1        0.0397
      8 C          61.9770   87.0110   11.0135 C.ar    1  UNL1        0.1723
      9 O          62.8340   86.5389   12.1505 O.3     1  UNL1       -0.4694
     10 C          63.4628   87.5346   13.0795 C.3     1  UNL1        0.2389
     11 C          65.5542   91.9248   14.2242 C.ar    1  UNL1        0.1719
     12 C          64.9254   90.9291   13.2951 C.ar    1  UNL1        0.0393
     13 C          63.8634   89.9982   13.8007 C.ar    1  UNL1        0.0241
     14 C          63.4302   90.0631   15.2353 C.ar    1  UNL1        0.0026
     15 C          64.0590   91.0587   16.1644 C.ar    1  UNL1        0.0396
     16 C          65.1210   91.9896   15.6588 C.ar    1  UNL1        0.1677
     17 O          65.7498   92.9854   16.5879 O.3     1  UNL1       -0.5029
     18 H          65.4792   93.0259   17.4841 H       1  UNL1        0.2923
     19 C          66.3470   93.7230   12.5248 C.3     1  UNL1        0.2526
     20 O          66.6162   92.8557   13.7187 O.3     1  UNL1       -0.4684
     21 C          64.3198   87.0625   14.2166 C.3     1  UNL1        0.1850
     22 O          63.6832   86.4857   15.4463 O.3     1  UNL1       -0.3784
     23 H          63.1754   87.1755   15.9013 H       1  UNL1        0.2106
     24 C          59.4061   88.4274    7.6026 C.3     1  UNL1        0.0290
     25 C          59.7635   89.6841    6.8656 C.3     1  UNL1        0.0364
     26 C          58.8187   90.2511    5.8479 C.3     1  UNL1        0.1375
     27 O          58.8059   91.7263    5.5763 O.3     1  UNL1       -0.3820
     28 H          58.4964   92.1977    6.3655 H       1  UNL1        0.2104
@<TRIPOS>BOND
     1    19    20    1
     2    20    11    1
     3    11    12   ar
     4    12    13   ar
     5     1    13    1
     6     1     2    1
     7     2     3    1
     8     3     4   ar
     9     4     5   ar
    10     5    24    1
    11    24    25    1
    12    25    26    1
    13    26    27    1
    14     5     6   ar
    15     6     7   ar
    16     7     8   ar
    17     8     9    1
    18     9    10    1
    19    10    21    1
    20    21    22    1
    21    13    14   ar
    22    14    15   ar
    23    15    16   ar
    24    16    17    1
    25    16    11   ar
    26    10     1    1
    27     8     3   ar
    28    27    28    1
    29    22    23    1
    30    17    18    1
@<TRIPOS>MOLECULE
*****
 28 30 0 0 0
SMALL
GASTEIGER

@<TRIPOS>ATOM
      1 C          64.5167   90.0154   14.8665 C.3     1  UNL1        0.2305
      2 O          64.5598   88.5584   14.5130 O.3     1  UNL1       -0.4679
      3 C          63.9173   87.5480   15.4165 C.ar    1  UNL1        0.1724
      4 C          63.9604   86.0909   15.0630 C.ar    1  UNL1        0.0358
      5 C          63.3179   85.0806   15.9665 C.ar    1  UNL1       -0.0189
      6 C          62.6322   85.5274   17.2236 C.ar    1  UNL1       -0.0009
      7 C          62.5891   86.9844   17.5772 C.ar    1  UNL1        0.0397
      8 C          63.2316   87.9947   16.6736 C.ar    1  UNL1        0.1723
      9 O          63.1885   89.4519   17.0272 O.3     1  UNL1       -0.4694
     10 C          63.8310   90.4622   16.1236 C.3     1  UNL1        0.2389
     11 C          65.1843   92.3531   11.7297 C.ar    1  UNL1        0.1719
     12 C          64.5418   91.3427   12.6332 C.ar    1  UNL1        0.0393
     13 C          65.1592   91.0258   13.9630 C.ar    1  UNL1        0.0241
     14 C          66.4191   91.7193   14.3893 C.ar    1  UNL1        0.0026
     15 C          67.0616   92.7297   13.4858 C.ar    1  UNL1        0.0396
     16 C          66.4442   93.0465   12.1560 C.ar    1  UNL1        0.1677
     17 O          67.0868   94.0569   11.2525 O.3     1  UNL1       -0.5029
     18 H          67.8738   94.4901   11.5188 H       1  UNL1        0.2923
     19 C          63.4754   91.7986    9.8530 C.3     1  UNL1        0.2526
     20 O          64.5670   92.6700   10.3998 O.3     1  UNL1       -0.4684
     21 C          63.7879   91.9194   16.4772 C.3     1  UNL1        0.1850
     22 O          64.8761   92.5198   17.3170 O.3     1  UNL1       -0.3784
     23 H          64.8466   92.1358   18.2073 H       1  UNL1        0.2106
     24 C          63.3610   83.6235   15.6130 C.3     1  UNL1        0.0290
     25 C          62.8768   83.1629   14.2700 C.3     1  UNL1        0.0364
     26 C          63.8597   82.6927   13.2392 C.3     1  UNL1        0.1375
     27 O          64.9831   83.5893   12.8101 O.3     1  UNL1       -0.3820
     28 H          64.6217   84.3624   12.3490 H       1  UNL1        0.2104
@<TRIPOS>BOND
     1    19    20    1
     2    20    11    1
     3    11    12   ar
     4    12    13   ar
     5     1    13    1
     6     1     2    1
     7     2     3    1
     8     3     4   ar
     9     4     5   ar
    10     5    24    1
    11    24    25    1
    12    25    26    1
    13    26    27    1
    14     5     6   ar
    15     6     7   ar
    16     7     8   ar
    17     8     9    1
    18     9    10    1
    19    10    21    1
    20    21    22    1
    21    13    14   ar
    22    14    15   ar
    23    15    16   ar
    24    16    17    1
    25    16    11   ar
    26    10     1    1
    27     8     3   ar
    28    27    28    1
    29    22    23    1
    30    17    18    1
@<TRIPOS>MOLECULE
*****
 28 30 0 0 0
SMALL
GASTEIGER

@<TRIPOS>ATOM
      1 C          62.9801   90.1411   10.9217 C.3     1  UNL1        0.2305
      2 O          63.6005   91.3456   10.2782 O.3     1  UNL1       -0.4679
      3 C          64.5621   92.1979   11.0522 C.ar    1  UNL1        0.1724
      4 C          65.1825   93.4024   10.4087 C.ar    1  UNL1        0.0358
      5 C          66.1441   94.2545   11.1828 C.ar    1  UNL1       -0.0189
      6 C          66.4852   93.9022   12.6003 C.ar    1  UNL1       -0.0009
      7 C          65.8648   92.6977   13.2438 C.ar    1  UNL1        0.0397
      8 C          64.9032   91.8455   12.4698 C.ar    1  UNL1        0.1723
      9 O          64.2827   90.6409   13.1133 O.3     1  UNL1       -0.4694
     10 C          63.3212   89.7887   12.3392 C.3     1  UNL1        0.2389
     11 C          61.3924   87.0045    9.0802 C.ar    1  UNL1        0.1719
     12 C          62.3540   87.8567    9.8542 C.ar    1  UNL1        0.0393
     13 C          62.0184   89.2889   10.1476 C.ar    1  UNL1        0.0241
     14 C          60.7213   89.8689    9.6671 C.ar    1  UNL1        0.0026
     15 C          59.7597   89.0167    8.8931 C.ar    1  UNL1        0.0396
     16 C          60.0953   87.5846    8.5996 C.ar    1  UNL1        0.1677
     17 O          59.1337   86.7323    7.8256 O.3     1  UNL1       -0.5029
     18 H          58.3234   87.0946    7.5254 H       1  UNL1        0.2923
     19 C          63.0840   85.2134    8.2552 C.3     1  UNL1        0.2526
     20 O          61.7280   85.5722    8.7866 O.3     1  UNL1       -0.4684
     21 C          62.7007   88.5841   12.9828 C.3     1  UNL1        0.1850
     22 O          63.4949   87.3203   13.1308 O.3     1  UNL1       -0.3784
     23 H          63.6872   86.9545   12.2532 H       1  UNL1        0.2106
     24 C          66.7645   95.4592   10.5393 C.3     1  UNL1        0.0290
     25 C          67.6012   95.3023    9.3042 C.3     1  UNL1        0.0364
     26 C          68.1619   93.9586    8.9438 C.3     1  UNL1        0.1375
     27 O          69.2581   93.3566    9.7721 O.3     1  UNL1       -0.3820
     28 H          70.0603   93.8952    9.6874 H       1  UNL1        0.2104
@<TRIPOS>BOND
     1    19    20    1
     2    20    11    1
     3    11    12   ar
     4    12    13   ar
     5     1    13    1
     6     1     2    1
     7     2     3    1
     8     3     4   ar
     9     4     5   ar
    10     5    24    1
    11    24    25    1
    12    25    26    1
    13    26    27    1
    14     5     6   ar
    15     6     7   ar
    16     7     8   ar
    17     8     9    1
    18     9    10    1
    19    10    21    1
    20    21    22    1
    21    13    14   ar
    22    14    15   ar
    23    15    16   ar
    24    16    17    1
    25    16    11   ar
    26    10     1    1
    27     8     3   ar
    28    27    28    1
    29    22    23    1
    30    17    18    1
@<TRIPOS>MOLECULE
*****
 28 30 0 0 0
SMALL
GASTEIGER

@<TRIPOS>ATOM
      1 C          62.8732   89.5569   10.7965 C.3     1  UNL1        0.2305
      2 O          63.4534   90.8101   10.2110 O.3     1  UNL1       -0.4679
      3 C          64.3480   91.6817   11.0417 C.ar    1  UNL1        0.1724
      4 C          64.9283   92.9348   10.4562 C.ar    1  UNL1        0.0358
      5 C          65.8228   93.8064   11.2868 C.ar    1  UNL1       -0.0189
      6 C          66.1371   93.4249   12.7031 C.ar    1  UNL1       -0.0009
      7 C          65.5568   92.1718   13.2886 C.ar    1  UNL1        0.0397
      8 C          64.6623   91.3002   12.4579 C.ar    1  UNL1        0.1723
      9 O          64.0820   90.0470   13.0434 O.3     1  UNL1       -0.4694
     10 C          63.1874   89.1754   12.2127 C.3     1  UNL1        0.2389
     11 C          59.9943   88.4292    8.3085 C.ar    1  UNL1        0.1719
     12 C          60.8888   89.3008    9.1392 C.ar    1  UNL1        0.0393
     13 C          61.9786   88.6853    9.9658 C.ar    1  UNL1        0.0241
     14 C          62.1738   87.1980    9.9618 C.ar    1  UNL1        0.0026
     15 C          61.2793   86.3264    9.1312 C.ar    1  UNL1        0.0396
     16 C          60.1895   86.9419    8.3045 C.ar    1  UNL1        0.1677
     17 O          59.2949   86.0703    7.4739 O.3     1  UNL1       -0.5029
     18 H          59.4169   85.1412    7.4713 H       1  UNL1        0.2923
     19 C          59.2421   89.7545    6.2043 C.3     1  UNL1        0.2526
     20 O          58.9044   89.0447    7.4819 O.3     1  UNL1       -0.4684
     21 C          62.6071   87.9222   12.7982 C.3     1  UNL1        0.1850
     22 O          63.5123   86.8771   13.3801 O.3     1  UNL1       -0.3784
     23 H          64.0551   86.4907   12.6752 H       1  UNL1        0.2106
     24 C          66.4032   95.0596   10.7013 C.3     1  UNL1        0.0290
     25 C          67.0927   95.0160    9.3699 C.3     1  UNL1        0.0364
     26 C          67.9068   93.8161    8.9859 C.3     1  UNL1        0.1375
     27 O          69.1577   93.4845    9.7444 O.3     1  UNL1       -0.3820
     28 H          69.8173   94.1810    9.6005 H       1  UNL1        0.2104
@<TRIPOS>BOND
     1    19    20    1
     2    20    11    1
     3    11    12   ar
     4    12    13   ar
     5     1    13    1
     6     1     2    1
     7     2     3    1
     8     3     4   ar
     9     4     5   ar
    10     5    24    1
    11    24    25    1
    12    25    26    1
    13    26    27    1
    14     5     6   ar
    15     6     7   ar
    16     7     8   ar
    17     8     9    1
    18     9    10    1
    19    10    21    1
    20    21    22    1
    21    13    14   ar
    22    14    15   ar
    23    15    16   ar
    24    16    17    1
    25    16    11   ar
    26    10     1    1
    27     8     3   ar
    28    27    28    1
    29    22    23    1
    30    17    18    1
@<TRIPOS>MOLECULE
*****
 28 30 0 0 0
SMALL
GASTEIGER

@<TRIPOS>ATOM
      1 C          63.4311   90.1324   11.8801 C.3     1  UNL1        0.2305
      2 O          62.5895   90.3603   10.6596 O.3     1  UNL1       -0.4679
      3 C          61.6719   89.2798   10.1688 C.ar    1  UNL1        0.1724
      4 C          60.8303   89.5077    8.9483 C.ar    1  UNL1        0.0358
      5 C          59.9128   88.4273    8.4576 C.ar    1  UNL1       -0.0189
      6 C          59.8370   87.1190    9.1874 C.ar    1  UNL1       -0.0009
      7 C          60.6786   86.8911   10.4079 C.ar    1  UNL1        0.0397
      8 C          61.5961   87.9715   10.8986 C.ar    1  UNL1        0.1723
      9 O          62.4378   87.7437   12.1192 O.3     1  UNL1       -0.4694
     10 C          63.3553   88.8241   12.6099 C.3     1  UNL1        0.2389
     11 C          65.6163   92.3757   14.3178 C.ar    1  UNL1        0.1719
     12 C          64.6988   91.2953   13.8271 C.ar    1  UNL1        0.0393
     13 C          64.3487   91.2129   12.3709 C.ar    1  UNL1        0.0241
     14 C          64.9160   92.2108   11.4055 C.ar    1  UNL1        0.0026
     15 C          65.8335   93.2912   11.8962 C.ar    1  UNL1        0.0396
     16 C          66.1837   93.3737   13.3524 C.ar    1  UNL1        0.1677
     17 O          67.1012   94.4541   13.8432 O.3     1  UNL1       -0.5029
     18 H          67.4557   95.0775   13.2401 H       1  UNL1        0.2923
     19 C          67.4033   92.4207   16.2033 C.3     1  UNL1        0.2526
     20 O          65.9665   92.4582   15.7741 O.3     1  UNL1       -0.4684
     21 C          64.1970   88.5962   13.8305 C.3     1  UNL1        0.1850
     22 O          63.5427   88.3688   15.1609 O.3     1  UNL1       -0.3784
     23 H          63.0760   89.1743   15.4336 H       1  UNL1        0.2106
     24 C          59.0711   88.6552    7.2371 C.3     1  UNL1        0.0290
     25 C          59.4818   89.6822    6.2238 C.3     1  UNL1        0.0364
     26 C          58.4787   90.6721    5.7103 C.3     1  UNL1        0.1375
     27 O          58.9058   92.0729    5.3857 O.3     1  UNL1       -0.3820
     28 H          59.1778   92.5248    6.1998 H       1  UNL1        0.2104
@<TRIPOS>BOND
     1    19    20    1
     2    20    11    1
     3    11    12   ar
     4    12    13   ar
     5     1    13    1
     6     1     2    1
     7     2     3    1
     8     3     4   ar
     9     4     5   ar
    10     5    24    1
    11    24    25    1
    12    25    26    1
    13    26    27    1
    14     5     6   ar
    15     6     7   ar
    16     7     8   ar
    17     8     9    1
    18     9    10    1
    19    10    21    1
    20    21    22    1
    21    13    14   ar
    22    14    15   ar
    23    15    16   ar
    24    16    17    1
    25    16    11   ar
    26    10     1    1
    27     8     3   ar
    28    27    28    1
    29    22    23    1
    30    17    18    1
@<TRIPOS>MOLECULE
*****
 28 30 0 0 0
SMALL
GASTEIGER

@<TRIPOS>ATOM
      1 C          63.5942   88.3479   13.6827 C.3     1  UNL1        0.2305
      2 O          62.8176   88.5727   12.4192 O.3     1  UNL1       -0.4679
      3 C          62.4646   87.4104   11.5391 C.ar    1  UNL1        0.1724
      4 C          61.6880   87.6352   10.2756 C.ar    1  UNL1        0.0358
      5 C          61.3350   86.4730    9.3955 C.ar    1  UNL1       -0.0189
      6 C          61.7585   85.0860    9.7789 C.ar    1  UNL1       -0.0009
      7 C          62.5351   84.8613   11.0423 C.ar    1  UNL1        0.0397
      8 C          62.8881   86.0235   11.9224 C.ar    1  UNL1        0.1723
      9 O          63.6647   85.7988   13.1860 O.3     1  UNL1       -0.4694
     10 C          64.0178   86.9610   14.0661 C.3     1  UNL1        0.2389
     11 C          65.4106   91.6009   15.0496 C.ar    1  UNL1        0.1719
     12 C          65.0576   90.4388   14.1695 C.ar    1  UNL1        0.0393
     13 C          63.9473   89.5102   14.5629 C.ar    1  UNL1        0.0241
     14 C          63.1900   89.7437   15.8364 C.ar    1  UNL1        0.0026
     15 C          63.5430   90.9059   16.7166 C.ar    1  UNL1        0.0396
     16 C          64.6533   91.8345   16.3232 C.ar    1  UNL1        0.1677
     17 O          65.0064   92.9967   17.2033 O.3     1  UNL1       -0.5029
     18 H          64.5334   93.1426   17.9989 H       1  UNL1        0.2923
     19 C          66.3987   93.3609   13.4136 C.3     1  UNL1        0.2526
     20 O          66.5210   92.5296   14.6562 O.3     1  UNL1       -0.4684
     21 C          64.7944   86.7362   15.3296 C.3     1  UNL1        0.1850
     22 O          64.3762   85.6584   16.2853 O.3     1  UNL1       -0.3784
     23 H          63.5109   85.8798   16.6638 H       1  UNL1        0.2106
     24 C          60.5583   86.6977    8.1320 C.3     1  UNL1        0.0290
     25 C          60.2879   85.5508    7.2038 C.3     1  UNL1        0.0364
     26 C          61.4213   84.8941    6.4730 C.3     1  UNL1        0.1375
     27 O          61.1400   83.8336    5.4502 O.3     1  UNL1       -0.3820
     28 H          60.7567   83.0569    5.8868 H       1  UNL1        0.2104
@<TRIPOS>BOND
     1    19    20    1
     2    20    11    1
     3    11    12   ar
     4    12    13   ar
     5     1    13    1
     6     1     2    1
     7     2     3    1
     8     3     4   ar
     9     4     5   ar
    10     5    24    1
    11    24    25    1
    12    25    26    1
    13    26    27    1
    14     5     6   ar
    15     6     7   ar
    16     7     8   ar
    17     8     9    1
    18     9    10    1
    19    10    21    1
    20    21    22    1
    21    13    14   ar
    22    14    15   ar
    23    15    16   ar
    24    16    17    1
    25    16    11   ar
    26    10     1    1
    27     8     3   ar
    28    27    28    1
    29    22    23    1
    30    17    18    1
