@<TRIPOS>MOLECULE
*****
 32 36 0 0 0
SMALL
GASTEIGER

@<TRIPOS>ATOM
      1 C          63.0451   86.3346   12.5123 C.2     1  UNL1        0.2505
      2 O          63.5909   87.2167   13.5957 O.2     1  UNL1       -0.2699
      3 N          62.2442   86.9302   11.3925 N.am    1  UNL1       -0.2773
      4 C          61.6984   86.0481   10.3090 C.3     1  UNL1        0.0937
      5 C          60.8975   86.6438    9.1893 C.3     1  UNL1        0.0216
      6 C          60.6425   88.1214    9.1530 C.3     1  UNL1        0.0035
      7 C          61.1883   89.0036   10.2365 C.3     1  UNL1        0.0202
      8 C          61.9892   88.4080   11.3562 C.3     1  UNL1        0.0800
      9 C          64.0332   81.8764   10.0327 C.3     1  UNL1        0.0310
     10 C          63.7942   82.6278   11.3088 C.ar    1  UNL1       -0.0216
     11 C          63.8102   81.9015   12.6211 C.ar    1  UNL1       -0.0026
     12 C          63.5711   82.6529   13.8971 C.ar    1  UNL1        0.0207
     13 C          63.3161   84.1306   13.8609 C.ar    1  UNL1        0.1072
     14 C          63.3001   84.8569   12.5486 C.ar    1  UNL1        0.0726
     15 C          63.5392   84.1055   11.2725 C.ar    1  UNL1        0.0018
     16 N          63.0771   84.8819   15.1369 N.ar    1  UNL1       -0.1477
     17 N          64.1217   85.5736   15.9617 N.ar    1  UNL1       -0.1447
     18 C          63.4417   86.1927   17.1468 C.ar    1  UNL1        0.1446
     19 C          61.9768   85.8837   17.0544 C.ar    1  UNL1        0.1446
     20 N          61.7515   85.0736   15.8122 N.ar    1  UNL1       -0.1447
     21 C          62.5350   89.2901   12.4397 C.3     1  UNL1        0.0462
     22 C          63.5010   90.3859   12.0992 C.ar    1  UNL1       -0.0190
     23 C          63.4505   91.0375   10.7491 C.ar    1  UNL1       -0.0041
     24 C          64.4165   92.1334   10.4085 C.ar    1  UNL1        0.0013
     25 C          65.4331   92.5776   11.4181 C.ar    1  UNL1        0.0209
     26 C          65.4836   91.9259   12.7683 C.ar    1  UNL1        0.1026
     27 C          64.5176   90.8301   13.1088 C.ar    1  UNL1        0.0167
     28 N          66.5002   92.3701   13.7779 N.ar    1  UNL1       -0.1478
     29 N          67.9828   92.1616   13.6867 N.ar    1  UNL1       -0.1447
     30 C          68.6116   92.7634   14.9084 C.ar    1  UNL1        0.1446
     31 C          67.5175   93.3439   15.7546 C.ar    1  UNL1        0.1446
     32 N          66.2126   93.1009   15.0559 N.ar    1  UNL1       -0.1447
@<TRIPOS>BOND
     1     9    10    1
     2    10    11   ar
     3    11    12   ar
     4    12    13   ar
     5    13    16    1
     6    16    17   ar
     7    17    18   ar
     8    18    19   ar
     9    19    20   ar
    10    13    14   ar
    11    14     1    1
    12     1     2    2
    13     1     3   am
    14     3     4    1
    15     4     5    1
    16     5     6    1
    17     6     7    1
    18     7     8    1
    19     8    21    1
    20    21    22    1
    21    22    23   ar
    22    23    24   ar
    23    24    25   ar
    24    25    26   ar
    25    26    28    1
    26    28    29   ar
    27    29    30   ar
    28    30    31   ar
    29    31    32   ar
    30    26    27   ar
    31    14    15   ar
    32    15    10   ar
    33    20    16   ar
    34     8     3    1
    35    27    22   ar
    36    32    28   ar
@<TRIPOS>MOLECULE
*****
 32 36 0 0 0
SMALL
GASTEIGER

@<TRIPOS>ATOM
      1 C          62.6582   88.5304   11.5300 C.2     1  UNL1        0.2505
      2 O          62.6431   90.0300   11.5023 O.2     1  UNL1       -0.2699
      3 N          63.3087   87.8078   12.6722 N.am    1  UNL1       -0.2773
      4 C          63.3238   86.3081   12.6998 C.3     1  UNL1        0.0937
      5 C          63.9743   85.5856   13.8422 C.3     1  UNL1        0.0216
      6 C          64.6097   86.3627   14.9567 C.3     1  UNL1        0.0035
      7 C          64.5946   87.8624   14.9291 C.3     1  UNL1        0.0202
      8 C          63.9441   88.5849   13.7869 C.3     1  UNL1        0.0800
      9 C          63.0098   84.9934    7.7396 C.3     1  UNL1        0.0310
     10 C          62.1986   85.9848    8.5202 C.ar    1  UNL1       -0.0216
     11 C          60.7521   86.1990    8.1861 C.ar    1  UNL1       -0.0026
     12 C          59.9410   87.1904    8.9666 C.ar    1  UNL1        0.0207
     13 C          60.5763   87.9675   10.0812 C.ar    1  UNL1        0.1072
     14 C          62.0228   87.7532   10.4153 C.ar    1  UNL1        0.0726
     15 C          62.8340   86.7619    9.6348 C.ar    1  UNL1        0.0018
     16 N          59.7651   88.9588   10.8617 N.ar    1  UNL1       -0.1477
     17 N          59.5617   90.4029   10.5107 N.ar    1  UNL1       -0.1447
     18 C          58.6858   91.0168   11.5623 C.ar    1  UNL1        0.1446
     19 C          58.3479   89.9520   12.5634 C.ar    1  UNL1        0.1446
     20 N          59.0149   88.6802   12.1304 N.ar    1  UNL1       -0.1447
     21 C          63.9290   90.0846   13.7592 C.3     1  UNL1        0.0462
     22 C          65.2199   90.8468   13.7075 C.ar    1  UNL1       -0.0190
     23 C          66.1528   90.8224   14.8818 C.ar    1  UNL1       -0.0041
     24 C          67.4437   91.5846   14.8301 C.ar    1  UNL1        0.0013
     25 C          67.8016   92.3713   13.6041 C.ar    1  UNL1        0.0209
     26 C          66.8686   92.3957   12.4298 C.ar    1  UNL1        0.1026
     27 C          65.5778   91.6335   12.4815 C.ar    1  UNL1        0.0167
     28 N          67.2265   93.1824   11.2038 N.ar    1  UNL1       -0.1478
     29 N          67.9787   92.6659   10.0132 N.ar    1  UNL1       -0.1447
     30 C          68.1121   93.7880    9.0267 C.ar    1  UNL1        0.1446
     31 C          67.4424   94.9980    9.6076 C.ar    1  UNL1        0.1446
     32 N          66.8951   94.6237   10.9532 N.ar    1  UNL1       -0.1447
@<TRIPOS>BOND
     1     9    10    1
     2    10    11   ar
     3    11    12   ar
     4    12    13   ar
     5    13    16    1
     6    16    17   ar
     7    17    18   ar
     8    18    19   ar
     9    19    20   ar
    10    13    14   ar
    11    14     1    1
    12     1     2    2
    13     1     3   am
    14     3     4    1
    15     4     5    1
    16     5     6    1
    17     6     7    1
    18     7     8    1
    19     8    21    1
    20    21    22    1
    21    22    23   ar
    22    23    24   ar
    23    24    25   ar
    24    25    26   ar
    25    26    28    1
    26    28    29   ar
    27    29    30   ar
    28    30    31   ar
    29    31    32   ar
    30    26    27   ar
    31    14    15   ar
    32    15    10   ar
    33    20    16   ar
    34     8     3    1
    35    27    22   ar
    36    32    28   ar
@<TRIPOS>MOLECULE
*****
 32 36 0 0 0
SMALL
GASTEIGER

@<TRIPOS>ATOM
      1 C          63.3520   86.9381   13.0987 C.2     1  UNL1        0.2505
      2 O          63.8222   87.6063   14.3566 O.2     1  UNL1       -0.2699
      3 N          62.8139   87.7629   11.9673 N.am    1  UNL1       -0.2773
      4 C          62.3437   87.0946   10.7094 C.3     1  UNL1        0.0937
      5 C          61.8055   87.9195    9.5780 C.3     1  UNL1        0.0216
      6 C          61.7376   89.4126    9.7046 C.3     1  UNL1        0.0035
      7 C          62.2079   90.0809   10.9625 C.3     1  UNL1        0.0202
      8 C          62.7460   89.2561   12.0938 C.3     1  UNL1        0.0800
      9 C          64.0147   82.6954   10.1729 C.3     1  UNL1        0.0310
     10 C          63.7513   83.3236   11.5093 C.ar    1  UNL1       -0.0216
     11 C          63.5558   82.4588   12.7192 C.ar    1  UNL1       -0.0026
     12 C          63.2923   83.0870   14.0555 C.ar    1  UNL1        0.0207
     13 C          63.2244   84.5801   14.1821 C.ar    1  UNL1        0.1072
     14 C          63.4199   85.4449   12.9722 C.ar    1  UNL1        0.0726
     15 C          63.6834   84.8167   11.6358 C.ar    1  UNL1        0.0018
     16 N          62.9610   85.2083   15.5184 N.ar    1  UNL1       -0.1477
     17 N          61.6129   85.4342   16.1362 N.ar    1  UNL1       -0.1447
     18 C          61.8181   86.0865   17.4713 C.ar    1  UNL1        0.1446
     19 C          63.2931   86.2638   17.6787 C.ar    1  UNL1        0.1446
     20 N          63.9994   85.7211   16.4718 N.ar    1  UNL1       -0.1447
     21 C          63.2162   89.9243   13.3517 C.3     1  UNL1        0.0462
     22 C          64.4749   90.7401   13.3422 C.ar    1  UNL1       -0.0190
     23 C          65.4646   90.6050   14.4612 C.ar    1  UNL1       -0.0041
     24 C          66.7234   91.4208   14.4516 C.ar    1  UNL1        0.0013
     25 C          66.9924   92.3716   13.3231 C.ar    1  UNL1        0.0209
     26 C          66.0026   92.5066   12.2041 C.ar    1  UNL1        0.1026
     27 C          64.7439   91.6909   12.2136 C.ar    1  UNL1        0.0167
     28 N          66.2716   93.4574   11.0755 N.ar    1  UNL1       -0.1478
     29 N          67.1318   93.1833    9.8776 N.ar    1  UNL1       -0.1447
     30 C          67.1195   94.4057    9.0085 C.ar    1  UNL1        0.1446
     31 C          66.2517   95.4355    9.6692 C.ar    1  UNL1        0.1446
     32 N          65.7276   94.8494   10.9467 N.ar    1  UNL1       -0.1447
@<TRIPOS>BOND
     1     9    10    1
     2    10    11   ar
     3    11    12   ar
     4    12    13   ar
     5    13    16    1
     6    16    17   ar
     7    17    18   ar
     8    18    19   ar
     9    19    20   ar
    10    13    14   ar
    11    14     1    1
    12     1     2    2
    13     1     3   am
    14     3     4    1
    15     4     5    1
    16     5     6    1
    17     6     7    1
    18     7     8    1
    19     8    21    1
    20    21    22    1
    21    22    23   ar
    22    23    24   ar
    23    24    25   ar
    24    25    26   ar
    25    26    28    1
    26    28    29   ar
    27    29    30   ar
    28    30    31   ar
    29    31    32   ar
    30    26    27   ar
    31    14    15   ar
    32    15    10   ar
    33    20    16   ar
    34     8     3    1
    35    27    22   ar
    36    32    28   ar
@<TRIPOS>MOLECULE
*****
 32 36 0 0 0
SMALL
GASTEIGER

@<TRIPOS>ATOM
      1 C          62.7917   87.4092   11.7728 C.2     1  UNL1        0.2505
      2 O          63.7708   87.8223   12.8313 O.2     1  UNL1       -0.2699
      3 N          61.6970   88.3464   11.3567 N.am    1  UNL1       -0.2773
      4 C          60.7179   87.9332   10.2981 C.3     1  UNL1        0.0937
      5 C          59.6232   88.8706    9.8820 C.3     1  UNL1        0.0216
      6 C          59.5077   90.2211   10.5245 C.3     1  UNL1        0.0035
      7 C          60.4868   90.6343   11.5830 C.3     1  UNL1        0.0202
      8 C          61.5814   89.6970   11.9991 C.3     1  UNL1        0.0800
      9 C          62.8407   84.4456    7.5048 C.3     1  UNL1        0.0310
     10 C          62.9318   84.5769    8.9963 C.ar    1  UNL1       -0.0216
     11 C          63.1384   83.3577    9.8453 C.ar    1  UNL1       -0.0026
     12 C          63.2295   83.4889   11.3368 C.ar    1  UNL1        0.0207
     13 C          63.1139   84.8394   11.9793 C.ar    1  UNL1        0.1072
     14 C          62.9073   86.0586   11.1303 C.ar    1  UNL1        0.0726
     15 C          62.8162   85.9273    9.6388 C.ar    1  UNL1        0.0018
     16 N          63.2049   84.9707   13.4707 N.ar    1  UNL1       -0.1477
     17 N          62.0756   84.7937   14.4420 N.ar    1  UNL1       -0.1447
     18 C          62.6140   85.0156   15.8243 C.ar    1  UNL1        0.1446
     19 C          64.0761   85.3297   15.7074 C.ar    1  UNL1        0.1446
     20 N          64.4413   85.3019   14.2528 N.ar    1  UNL1       -0.1447
     21 C          62.5606   90.1102   13.0577 C.3     1  UNL1        0.0462
     22 C          63.7463   90.9539   12.6944 C.ar    1  UNL1       -0.0190
     23 C          63.9080   91.4551   11.2899 C.ar    1  UNL1       -0.0041
     24 C          65.0938   92.2989   10.9265 C.ar    1  UNL1        0.0013
     25 C          66.1180   92.6413   11.9676 C.ar    1  UNL1        0.0209
     26 C          65.9563   92.1399   13.3722 C.ar    1  UNL1        0.1026
     27 C          64.7705   91.2963   13.7355 C.ar    1  UNL1        0.0167
     28 N          66.9804   92.4824   14.4133 N.ar    1  UNL1       -0.1478
     29 N          67.5012   93.8552   14.7197 N.ar    1  UNL1       -0.1447
     30 C          68.5062   93.7334   15.8266 C.ar    1  UNL1        0.1446
     31 C          68.6065   92.2852   16.2042 C.ar    1  UNL1        0.1446
     32 N          67.6635   91.5119   15.3308 N.ar    1  UNL1       -0.1447
@<TRIPOS>BOND
     1     9    10    1
     2    10    11   ar
     3    11    12   ar
     4    12    13   ar
     5    13    16    1
     6    16    17   ar
     7    17    18   ar
     8    18    19   ar
     9    19    20   ar
    10    13    14   ar
    11    14     1    1
    12     1     2    2
    13     1     3   am
    14     3     4    1
    15     4     5    1
    16     5     6    1
    17     6     7    1
    18     7     8    1
    19     8    21    1
    20    21    22    1
    21    22    23   ar
    22    23    24   ar
    23    24    25   ar
    24    25    26   ar
    25    26    28    1
    26    28    29   ar
    27    29    30   ar
    28    30    31   ar
    29    31    32   ar
    30    26    27   ar
    31    14    15   ar
    32    15    10   ar
    33    20    16   ar
    34     8     3    1
    35    27    22   ar
    36    32    28   ar
@<TRIPOS>MOLECULE
*****
 32 36 0 0 0
SMALL
GASTEIGER

@<TRIPOS>ATOM
      1 C          62.3830   84.6320   12.2142 C.2     1  UNL1        0.2505
      2 O          61.8344   85.6817   13.1346 O.2     1  UNL1       -0.2699
      3 N          62.5985   84.9452   10.7632 N.am    1  UNL1       -0.2773
      4 C          63.1471   83.8955    9.8427 C.3     1  UNL1        0.0937
      5 C          63.3625   84.2088    8.3917 C.3     1  UNL1        0.0216
      6 C          63.0294   85.5716    7.8611 C.3     1  UNL1        0.0035
      7 C          62.4807   86.6213    8.7815 C.3     1  UNL1        0.0202
      8 C          62.2653   86.3081   10.2325 C.3     1  UNL1        0.0800
      9 C          62.7213   79.4931   11.5235 C.3     1  UNL1        0.0310
     10 C          62.8853   80.6996   12.3995 C.ar    1  UNL1       -0.0216
     11 C          63.3825   80.5434   13.8060 C.ar    1  UNL1       -0.0026
     12 C          63.5466   81.7500   14.6819 C.ar    1  UNL1        0.0207
     13 C          63.2134   83.1128   14.1513 C.ar    1  UNL1        0.1072
     14 C          62.7162   83.2691   12.7448 C.ar    1  UNL1        0.0726
     15 C          62.5522   82.0625   11.8689 C.ar    1  UNL1        0.0018
     16 N          63.3774   84.3194   15.0273 N.ar    1  UNL1       -0.1477
     17 N          62.4547   84.7381   16.1332 N.ar    1  UNL1       -0.1447
     18 C          63.0000   85.9966   16.7405 C.ar    1  UNL1        0.1446
     19 C          64.2598   86.3557   16.0099 C.ar    1  UNL1        0.1446
     20 N          64.4931   85.3192   14.9510 N.ar    1  UNL1       -0.1447
     21 C          61.7166   87.3578   11.1529 C.3     1  UNL1        0.0462
     22 C          62.3277   88.7274   11.1775 C.ar    1  UNL1       -0.0190
     23 C          62.2554   89.6028    9.9616 C.ar    1  UNL1       -0.0041
     24 C          62.8665   90.9725    9.9862 C.ar    1  UNL1        0.0013
     25 C          63.5499   91.4667   11.2266 C.ar    1  UNL1        0.0209
     26 C          63.6223   90.5912   12.4425 C.ar    1  UNL1        0.1026
     27 C          63.0112   89.2216   12.4179 C.ar    1  UNL1        0.0167
     28 N          64.3057   91.0854   13.6829 N.ar    1  UNL1       -0.1478
     29 N          65.7394   91.5136   13.7886 N.ar    1  UNL1       -0.1447
     30 C          65.9953   91.9310   15.2064 C.ar    1  UNL1        0.1446
     31 C          64.7197   91.7609   15.9771 C.ar    1  UNL1        0.1446
     32 N          63.6754   91.2382   15.0355 N.ar    1  UNL1       -0.1447
@<TRIPOS>BOND
     1     9    10    1
     2    10    11   ar
     3    11    12   ar
     4    12    13   ar
     5    13    16    1
     6    16    17   ar
     7    17    18   ar
     8    18    19   ar
     9    19    20   ar
    10    13    14   ar
    11    14     1    1
    12     1     2    2
    13     1     3   am
    14     3     4    1
    15     4     5    1
    16     5     6    1
    17     6     7    1
    18     7     8    1
    19     8    21    1
    20    21    22    1
    21    22    23   ar
    22    23    24   ar
    23    24    25   ar
    24    25    26   ar
    25    26    28    1
    26    28    29   ar
    27    29    30   ar
    28    30    31   ar
    29    31    32   ar
    30    26    27   ar
    31    14    15   ar
    32    15    10   ar
    33    20    16   ar
    34     8     3    1
    35    27    22   ar
    36    32    28   ar
@<TRIPOS>MOLECULE
*****
 32 36 0 0 0
SMALL
GASTEIGER

@<TRIPOS>ATOM
      1 C          62.6942   88.1692   11.0229 C.2     1  UNL1        0.2505
      2 O          63.0157   89.6255   10.8620 O.2     1  UNL1       -0.2699
      3 N          63.1650   87.4271   12.2385 N.am    1  UNL1       -0.2773
      4 C          62.8435   85.9708   12.3994 C.3     1  UNL1        0.0937
      5 C          63.3143   85.2287   13.6150 C.3     1  UNL1        0.0216
      6 C          64.1065   85.9429   14.6697 C.3     1  UNL1        0.0035
      7 C          64.4279   87.3992   14.5087 C.3     1  UNL1        0.0202
      8 C          63.9572   88.1413   13.2932 C.3     1  UNL1        0.0800
      9 C          62.4549   84.7479    7.1194 C.3     1  UNL1        0.0310
     10 C          61.7824   85.7443    8.0164 C.ar    1  UNL1       -0.0216
     11 C          60.3177   86.0266    7.8588 C.ar    1  UNL1       -0.0026
     12 C          59.6451   87.0231    8.7559 C.ar    1  UNL1        0.0207
     13 C          60.4373   87.7373    9.8106 C.ar    1  UNL1        0.1072
     14 C          61.9020   87.4550    9.9682 C.ar    1  UNL1        0.0726
     15 C          62.5745   86.4585    9.0711 C.ar    1  UNL1        0.0018
     16 N          59.7647   88.7337   10.7076 N.ar    1  UNL1       -0.1477
     17 N          59.1091   88.4342   12.0231 N.ar    1  UNL1       -0.1447
     18 C          58.5688   89.7200   12.5752 C.ar    1  UNL1        0.1446
     19 C          58.8906   90.8143   11.6010 C.ar    1  UNL1        0.1446
     20 N          59.6297   90.2047   10.4468 N.ar    1  UNL1       -0.1447
     21 C          64.2786   89.5976   13.1323 C.3     1  UNL1        0.0462
     22 C          64.5429   90.4453   14.3411 C.ar    1  UNL1       -0.0190
     23 C          63.4905   90.5905   15.4000 C.ar    1  UNL1       -0.0041
     24 C          63.7547   91.4383   16.6089 C.ar    1  UNL1        0.0013
     25 C          65.0715   92.1409   16.7589 C.ar    1  UNL1        0.0209
     26 C          66.1240   91.9957   15.7000 C.ar    1  UNL1        0.1026
     27 C          65.8597   91.1479   14.4911 C.ar    1  UNL1        0.0167
     28 N          67.4407   92.6983   15.8500 N.ar    1  UNL1       -0.1478
     29 N          67.6759   94.1721   15.6994 N.ar    1  UNL1       -0.1447
     30 C          69.1340   94.4351   15.9333 C.ar    1  UNL1        0.1446
     31 C          69.8000   93.1239   16.2285 C.ar    1  UNL1        0.1446
     32 N          68.7536   92.0504   16.1770 N.ar    1  UNL1       -0.1447
@<TRIPOS>BOND
     1     9    10    1
     2    10    11   ar
     3    11    12   ar
     4    12    13   ar
     5    13    16    1
     6    16    17   ar
     7    17    18   ar
     8    18    19   ar
     9    19    20   ar
    10    13    14   ar
    11    14     1    1
    12     1     2    2
    13     1     3   am
    14     3     4    1
    15     4     5    1
    16     5     6    1
    17     6     7    1
    18     7     8    1
    19     8    21    1
    20    21    22    1
    21    22    23   ar
    22    23    24   ar
    23    24    25   ar
    24    25    26   ar
    25    26    28    1
    26    28    29   ar
    27    29    30   ar
    28    30    31   ar
    29    31    32   ar
    30    26    27   ar
    31    14    15   ar
    32    15    10   ar
    33    20    16   ar
    34     8     3    1
    35    27    22   ar
    36    32    28   ar
@<TRIPOS>MOLECULE
*****
 32 36 0 0 0
SMALL
GASTEIGER

@<TRIPOS>ATOM
      1 C          63.3752   87.7098   13.1287 C.2     1  UNL1        0.2505
      2 O          63.5666   88.7964   12.1125 O.2     1  UNL1       -0.2699
      3 N          63.3060   88.0510   14.5877 N.am    1  UNL1       -0.2773
      4 C          63.1146   86.9644   15.6039 C.3     1  UNL1        0.0937
      5 C          63.0454   87.3057   17.0629 C.3     1  UNL1        0.0216
      6 C          63.1676   88.7336   17.5057 C.3     1  UNL1        0.0035
      7 C          63.3590   89.8203   16.4896 C.3     1  UNL1        0.0202
      8 C          63.4282   89.4790   15.0306 C.3     1  UNL1        0.0800
      9 C          64.6792   82.7076   13.6558 C.3     1  UNL1        0.0310
     10 C          63.9050   83.7807   12.9494 C.ar    1  UNL1       -0.0216
     11 C          63.0088   83.4260   11.8002 C.ar    1  UNL1       -0.0026
     12 C          62.2346   84.4992   11.0937 C.ar    1  UNL1        0.0207
     13 C          62.3568   85.9271   11.5366 C.ar    1  UNL1        0.1072
     14 C          63.2530   86.2818   12.6858 C.ar    1  UNL1        0.0726
     15 C          64.0272   85.2086   13.3922 C.ar    1  UNL1        0.0018
     16 N          61.5826   87.0002   10.8301 N.ar    1  UNL1       -0.1477
     17 N          61.8473   87.5118    9.4452 N.ar    1  UNL1       -0.1447
     18 C          60.8361   88.5780    9.1437 C.ar    1  UNL1        0.1446
     19 C          59.9465   88.7254   10.3424 C.ar    1  UNL1        0.1446
     20 N          60.4079   87.7502   11.3847 N.ar    1  UNL1       -0.1447
     21 C          63.6196   90.5656   14.0144 C.3     1  UNL1        0.0462
     22 C          64.9628   91.2134   13.8530 C.ar    1  UNL1       -0.0190
     23 C          66.0458   90.9548   14.8580 C.ar    1  UNL1       -0.0041
     24 C          67.3891   91.6026   14.6967 C.ar    1  UNL1        0.0013
     25 C          67.6493   92.5090   13.5302 C.ar    1  UNL1        0.0209
     26 C          66.5662   92.7677   12.5251 C.ar    1  UNL1        0.1026
     27 C          65.2230   92.1199   12.6865 C.ar    1  UNL1        0.0167
     28 N          66.8264   93.6742   11.3587 N.ar    1  UNL1       -0.1478
     29 N          66.2724   95.0560   11.1751 N.ar    1  UNL1       -0.1447
     30 C          66.7899   95.5938    9.8740 C.ar    1  UNL1        0.1446
     31 C          67.6638   94.5444    9.2534 C.ar    1  UNL1        0.1446
     32 N          67.6864   93.3579   10.1710 N.ar    1  UNL1       -0.1447
@<TRIPOS>BOND
     1     9    10    1
     2    10    11   ar
     3    11    12   ar
     4    12    13   ar
     5    13    16    1
     6    16    17   ar
     7    17    18   ar
     8    18    19   ar
     9    19    20   ar
    10    13    14   ar
    11    14     1    1
    12     1     2    2
    13     1     3   am
    14     3     4    1
    15     4     5    1
    16     5     6    1
    17     6     7    1
    18     7     8    1
    19     8    21    1
    20    21    22    1
    21    22    23   ar
    22    23    24   ar
    23    24    25   ar
    24    25    26   ar
    25    26    28    1
    26    28    29   ar
    27    29    30   ar
    28    30    31   ar
    29    31    32   ar
    30    26    27   ar
    31    14    15   ar
    32    15    10   ar
    33    20    16   ar
    34     8     3    1
    35    27    22   ar
    36    32    28   ar
@<TRIPOS>MOLECULE
*****
 32 36 0 0 0
SMALL
GASTEIGER

@<TRIPOS>ATOM
      1 C          62.8395   88.9370   11.9524 C.2     1  UNL1        0.2505
      2 O          62.9100   87.6940   12.7891 O.2     1  UNL1       -0.2699
      3 N          61.8898   89.0080   10.7935 N.am    1  UNL1       -0.2773
      4 C          61.8193   90.2509    9.9567 C.3     1  UNL1        0.0937
      5 C          60.8695   90.3219    8.7978 C.3     1  UNL1        0.0216
      6 C          59.9904   89.1501    8.4757 C.3     1  UNL1        0.0035
      7 C          60.0609   87.9072    9.3125 C.3     1  UNL1        0.0202
      8 C          61.0106   87.8361   10.4713 C.3     1  UNL1        0.0800
      9 C          65.3621   93.2203   10.4393 C.3     1  UNL1        0.0310
     10 C          64.9800   92.2505   11.5179 C.ar    1  UNL1       -0.0216
     11 C          65.4771   92.4525   12.9187 C.ar    1  UNL1       -0.0026
     12 C          65.0949   91.4827   13.9973 C.ar    1  UNL1        0.0207
     13 C          64.2158   90.3109   13.6752 C.ar    1  UNL1        0.1072
     14 C          63.7187   90.1089   12.2745 C.ar    1  UNL1        0.0726
     15 C          64.1008   91.0787   11.1959 C.ar    1  UNL1        0.0018
     16 N          63.8337   89.3411   14.7539 N.ar    1  UNL1       -0.1477
     17 N          62.8686   89.6015   15.8723 N.ar    1  UNL1       -0.1447
     18 C          62.7880   88.3619   16.7131 C.ar    1  UNL1        0.1446
     19 C          63.7033   87.3354   16.1144 C.ar    1  UNL1        0.1446
     20 N          64.3495   87.9406   14.9035 N.ar    1  UNL1       -0.1447
     21 C          61.0811   86.5932   11.3081 C.3     1  UNL1        0.0462
     22 C          61.9717   85.4596   10.8938 C.ar    1  UNL1       -0.0190
     23 C          62.6860   85.5103    9.5758 C.ar    1  UNL1       -0.0041
     24 C          63.5767   84.3767    9.1614 C.ar    1  UNL1        0.0013
     25 C          63.7530   83.1925   10.0650 C.ar    1  UNL1        0.0209
     26 C          63.0387   83.1418   11.3830 C.ar    1  UNL1        0.1026
     27 C          62.1480   84.2754   11.7974 C.ar    1  UNL1        0.0167
     28 N          63.2150   81.9576   12.2867 N.ar    1  UNL1       -0.1478
     29 N          62.4249   80.6836   12.2348 N.ar    1  UNL1       -0.1447
     30 C          62.9340   79.7781   13.3169 C.ar    1  UNL1        0.1446
     31 C          64.0386   80.4925   14.0375 C.ar    1  UNL1        0.1446
     32 N          64.2124   81.8395   13.4009 N.ar    1  UNL1       -0.1447
@<TRIPOS>BOND
     1     9    10    1
     2    10    11   ar
     3    11    12   ar
     4    12    13   ar
     5    13    16    1
     6    16    17   ar
     7    17    18   ar
     8    18    19   ar
     9    19    20   ar
    10    13    14   ar
    11    14     1    1
    12     1     2    2
    13     1     3   am
    14     3     4    1
    15     4     5    1
    16     5     6    1
    17     6     7    1
    18     7     8    1
    19     8    21    1
    20    21    22    1
    21    22    23   ar
    22    23    24   ar
    23    24    25   ar
    24    25    26   ar
    25    26    28    1
    26    28    29   ar
    27    29    30   ar
    28    30    31   ar
    29    31    32   ar
    30    26    27   ar
    31    14    15   ar
    32    15    10   ar
    33    20    16   ar
    34     8     3    1
    35    27    22   ar
    36    32    28   ar
