@<TRIPOS>MOLECULE
*****
 30 34 0 0 0
SMALL
GASTEIGER

@<TRIPOS>ATOM
      1 O          66.8073   95.3215   12.6616 O.2     1  UNL1       -0.2669
      2 C          66.4649   93.9208   13.0749 C.ar    1  UNL1        0.2636
      3 C          67.1018   93.3216   14.2937 C.ar    1  UNL1        0.0739
      4 C          68.0811   94.1230   15.0991 C.ar    1  UNL1        0.0063
      5 C          68.7179   93.5238   16.3178 C.ar    1  UNL1        0.0003
      6 C          68.3755   92.1231   16.7311 C.ar    1  UNL1        0.0015
      7 C          67.3963   91.3216   15.9257 C.ar    1  UNL1        0.0193
      8 C          66.7594   91.9209   14.7070 C.ar    1  UNL1        0.0875
      9 N          65.7802   91.1194   13.9015 N.ar    1  UNL1       -0.2280
     10 C          65.1433   91.7187   12.6827 C.ar    1  UNL1        0.1462
     11 N          65.4857   93.1194   12.2695 N.ar    1  UNL1       -0.2763
     12 C          64.1640   90.9172   11.8773 C.ar    1  UNL1        0.0342
     13 C          63.6158   89.6329   12.4250 C.ar    1  UNL1        0.0030
     14 C          62.6366   88.8315   11.6196 C.ar    1  UNL1        0.0001
     15 C          62.2056   89.3143   10.2664 C.ar    1  UNL1        0.0000
     16 C          62.7538   90.5986    9.7187 C.ar    1  UNL1        0.0001
     17 C          63.7331   91.4001   10.5241 C.ar    1  UNL1        0.0030
     18 C          61.2263   88.5129    9.4609 C.ar    1  UNL1        0.0000
     19 C          61.2795   87.0141    9.4908 C.ar    1  UNL1        0.0000
     20 C          60.3003   86.2127    8.6854 C.ar    1  UNL1        0.0000
     21 C          59.2679   86.9100    7.8501 C.ar    1  UNL1        0.0000
     22 C          59.2147   88.4087    7.8202 C.ar    1  UNL1        0.0000
     23 C          60.1939   89.2102    8.6256 C.ar    1  UNL1        0.0000
     24 C          64.8488   93.7186   11.0507 C.3     1  UNL1        0.1387
     25 C          65.6590   94.5798   10.1277 C.ar    1  UNL1        0.0197
     26 C          66.8898   94.0265    9.4728 C.ar    1  UNL1        0.0007
     27 C          67.7000   94.8877    8.5498 C.ar    1  UNL1        0.0204
     28 C          67.2794   96.3023    8.2817 C.ar    1  UNL1        0.0989
     29 N          66.0486   96.8558    8.9366 N.ar    1  UNL1       -0.2426
     30 C          65.2384   95.9945    9.8596 C.ar    1  UNL1        0.0965
@<TRIPOS>BOND
     1     1     2    2
     2     2     3   ar
     3     3     4   ar
     4     4     5   ar
     5     5     6   ar
     6     6     7   ar
     7     7     8   ar
     8     8     9   ar
     9     9    10   ar
    10    10    12    1
    11    12    13   ar
    12    13    14   ar
    13    14    15   ar
    14    15    18    1
    15    18    19   ar
    16    19    20   ar
    17    20    21   ar
    18    21    22   ar
    19    22    23   ar
    20    15    16   ar
    21    16    17   ar
    22    10    11   ar
    23    11    24    1
    24    24    25    1
    25    25    26   ar
    26    26    27   ar
    27    27    28   ar
    28    28    29   ar
    29    29    30   ar
    30    11     2   ar
    31    30    25   ar
    32     8     3   ar
    33    17    12   ar
    34    23    18   ar
@<TRIPOS>MOLECULE
*****
 30 34 0 0 0
SMALL
GASTEIGER

@<TRIPOS>ATOM
      1 O          64.5243   91.4269   17.2992 O.2     1  UNL1       -0.2669
      2 C          64.9222   91.4455   15.8531 C.ar    1  UNL1        0.2636
      3 C          66.1892   92.1297   15.4325 C.ar    1  UNL1        0.0739
      4 C          67.0582   92.7952   16.4581 C.ar    1  UNL1        0.0063
      5 C          68.3251   93.4794   16.0375 C.ar    1  UNL1        0.0003
      6 C          68.7230   93.4979   14.5914 C.ar    1  UNL1        0.0015
      7 C          67.8540   92.8323   13.5658 C.ar    1  UNL1        0.0193
      8 C          66.5871   92.1482   13.9864 C.ar    1  UNL1        0.0875
      9 N          65.7181   91.4826   12.9608 N.ar    1  UNL1       -0.2280
     10 C          64.4512   90.7985   13.3813 C.ar    1  UNL1        0.1462
     11 N          64.0533   90.7799   14.8275 N.ar    1  UNL1       -0.2763
     12 C          63.5821   90.1328   12.3557 C.ar    1  UNL1        0.0342
     13 C          63.4128   88.6425   12.3696 C.ar    1  UNL1        0.0030
     14 C          62.5438   87.9769   11.3441 C.ar    1  UNL1        0.0001
     15 C          61.8442   88.8016   10.3047 C.ar    1  UNL1        0.0000
     16 C          62.0135   90.2919   10.2909 C.ar    1  UNL1        0.0001
     17 C          62.8825   90.9575   11.3164 C.ar    1  UNL1        0.0030
     18 C          60.9751   88.1359    9.2791 C.ar    1  UNL1        0.0000
     19 C          61.0882   86.6586    9.0452 C.ar    1  UNL1        0.0000
     20 C          60.2192   85.9930    8.0197 C.ar    1  UNL1        0.0000
     21 C          59.2371   86.8047    7.2281 C.ar    1  UNL1        0.0000
     22 C          59.1240   88.2820    7.4620 C.ar    1  UNL1        0.0000
     23 C          59.9930   88.9476    8.4875 C.ar    1  UNL1        0.0000
     24 C          62.7863   90.0957   15.2480 C.3     1  UNL1        0.1387
     25 C          62.8361   88.7083   15.8158 C.ar    1  UNL1        0.0197
     26 C          63.9380   87.7729   15.4149 C.ar    1  UNL1        0.0007
     27 C          63.9878   86.3854   15.9827 C.ar    1  UNL1        0.0204
     28 C          62.9357   85.9333   16.9515 C.ar    1  UNL1        0.0989
     29 N          61.8336   86.8687   17.3524 N.ar    1  UNL1       -0.2426
     30 C          61.7838   88.2561   16.7846 C.ar    1  UNL1        0.0965
@<TRIPOS>BOND
     1     1     2    2
     2     2     3   ar
     3     3     4   ar
     4     4     5   ar
     5     5     6   ar
     6     6     7   ar
     7     7     8   ar
     8     8     9   ar
     9     9    10   ar
    10    10    12    1
    11    12    13   ar
    12    13    14   ar
    13    14    15   ar
    14    15    18    1
    15    18    19   ar
    16    19    20   ar
    17    20    21   ar
    18    21    22   ar
    19    22    23   ar
    20    15    16   ar
    21    16    17   ar
    22    10    11   ar
    23    11    24    1
    24    24    25    1
    25    25    26   ar
    26    26    27   ar
    27    27    28   ar
    28    28    29   ar
    29    29    30   ar
    30    11     2   ar
    31    30    25   ar
    32     8     3   ar
    33    17    12   ar
    34    23    18   ar
@<TRIPOS>MOLECULE
*****
 30 34 0 0 0
SMALL
GASTEIGER

@<TRIPOS>ATOM
      1 O          61.2008   84.9131   10.5563 O.2     1  UNL1       -0.2669
      2 C          61.3458   86.3949   10.3743 C.ar    1  UNL1        0.2636
      3 C          60.5418   87.1039    9.3250 C.ar    1  UNL1        0.0739
      4 C          59.5927   86.3311    8.4579 C.ar    1  UNL1        0.0063
      5 C          58.7887   87.0401    7.4087 C.ar    1  UNL1        0.0003
      6 C          58.9337   88.5220    7.2267 C.ar    1  UNL1        0.0015
      7 C          59.8828   89.2948    8.0938 C.ar    1  UNL1        0.0193
      8 C          60.6868   88.5858    9.1430 C.ar    1  UNL1        0.0875
      9 N          61.6360   89.3586   10.0102 N.ar    1  UNL1       -0.2280
     10 C          62.4400   88.6496   11.0593 C.ar    1  UNL1        0.1462
     11 N          62.2949   87.1678   11.2414 N.ar    1  UNL1       -0.2763
     12 C          63.3891   89.4224   11.9265 C.ar    1  UNL1        0.0342
     13 C          63.7963   88.8778   13.2635 C.ar    1  UNL1        0.0030
     14 C          64.7454   89.6505   14.1307 C.ar    1  UNL1        0.0001
     15 C          65.2873   90.9679   13.6609 C.ar    1  UNL1        0.0000
     16 C          64.8801   91.5125   12.3239 C.ar    1  UNL1        0.0001
     17 C          63.9310   90.7398   11.4567 C.ar    1  UNL1        0.0030
     18 C          66.2364   91.7407   14.5281 C.ar    1  UNL1        0.0000
     19 C          65.7641   92.3144   15.8311 C.ar    1  UNL1        0.0000
     20 C          66.7131   93.0872   16.6983 C.ar    1  UNL1        0.0000
     21 C          68.1345   93.2863   16.2625 C.ar    1  UNL1        0.0000
     22 C          68.6069   92.7125   14.9595 C.ar    1  UNL1        0.0000
     23 C          67.6578   91.9398   14.0923 C.ar    1  UNL1        0.0000
     24 C          63.0990   86.4587   12.2907 C.3     1  UNL1        0.1387
     25 C          63.1623   84.9601   12.3017 C.ar    1  UNL1        0.0197
     26 C          63.9348   84.2342   11.2405 C.ar    1  UNL1        0.0007
     27 C          63.9981   82.7356   11.2516 C.ar    1  UNL1        0.0204
     28 C          63.2888   81.9629   12.3238 C.ar    1  UNL1        0.0989
     29 N          62.5162   82.6888   13.3850 N.ar    1  UNL1       -0.2426
     30 C          62.4529   84.1874   13.3740 C.ar    1  UNL1        0.0965
@<TRIPOS>BOND
     1     1     2    2
     2     2     3   ar
     3     3     4   ar
     4     4     5   ar
     5     5     6   ar
     6     6     7   ar
     7     7     8   ar
     8     8     9   ar
     9     9    10   ar
    10    10    12    1
    11    12    13   ar
    12    13    14   ar
    13    14    15   ar
    14    15    18    1
    15    18    19   ar
    16    19    20   ar
    17    20    21   ar
    18    21    22   ar
    19    22    23   ar
    20    15    16   ar
    21    16    17   ar
    22    10    11   ar
    23    11    24    1
    24    24    25    1
    25    25    26   ar
    26    26    27   ar
    27    27    28   ar
    28    28    29   ar
    29    29    30   ar
    30    11     2   ar
    31    30    25   ar
    32     8     3   ar
    33    17    12   ar
    34    23    18   ar
@<TRIPOS>MOLECULE
*****
 30 34 0 0 0
SMALL
GASTEIGER

@<TRIPOS>ATOM
      1 O          45.1806   78.0187   21.2983 O.2     1  UNL1       -0.2669
      2 C          44.8596   78.0028   19.8331 C.ar    1  UNL1        0.2636
      3 C          44.4741   79.2737   19.1359 C.ar    1  UNL1        0.0739
      4 C          44.4095   80.5606   19.9038 C.ar    1  UNL1        0.0063
      5 C          44.0240   81.8315   19.2066 C.ar    1  UNL1        0.0003
      6 C          43.7031   81.8155   17.7414 C.ar    1  UNL1        0.0015
      7 C          43.7677   80.5287   16.9734 C.ar    1  UNL1        0.0193
      8 C          44.1532   79.2578   17.6707 C.ar    1  UNL1        0.0875
      9 N          44.2178   77.9708   16.9027 N.ar    1  UNL1       -0.2280
     10 C          44.6033   76.6999   17.5999 C.ar    1  UNL1        0.1462
     11 N          44.9242   76.7159   19.0651 N.ar    1  UNL1       -0.2763
     12 C          44.6679   75.4130   16.8320 C.ar    1  UNL1        0.0342
     13 C          43.6354   74.3496   17.0623 C.ar    1  UNL1        0.0030
     14 C          43.7000   73.0627   16.2944 C.ar    1  UNL1        0.0001
     15 C          44.7970   72.8392   15.2962 C.ar    1  UNL1        0.0000
     16 C          45.8295   73.9027   15.0659 C.ar    1  UNL1        0.0001
     17 C          45.7650   75.1896   15.8338 C.ar    1  UNL1        0.0030
     18 C          44.8616   71.5523   14.5283 C.ar    1  UNL1        0.0000
     19 C          46.1283   70.7489   14.5162 C.ar    1  UNL1        0.0000
     20 C          46.1930   69.4620   13.7483 C.ar    1  UNL1        0.0000
     21 C          44.9909   68.9785   12.9925 C.ar    1  UNL1        0.0000
     22 C          43.7243   69.7819   13.0045 C.ar    1  UNL1        0.0000
     23 C          43.6596   71.0688   13.7724 C.ar    1  UNL1        0.0000
     24 C          45.3098   75.4449   19.7624 C.3     1  UNL1        0.1387
     25 C          46.7406   74.9946   19.7639 C.ar    1  UNL1        0.0197
     26 C          47.0827   73.5821   19.3928 C.ar    1  UNL1        0.0007
     27 C          48.5135   73.1318   19.3943 C.ar    1  UNL1        0.0204
     28 C          49.6022   74.0940   19.7669 C.ar    1  UNL1        0.0989
     29 N          49.2601   75.5066   20.1380 N.ar    1  UNL1       -0.2426
     30 C          47.8293   75.9569   20.1365 C.ar    1  UNL1        0.0965
@<TRIPOS>BOND
     1     1     2    2
     2     2     3   ar
     3     3     4   ar
     4     4     5   ar
     5     5     6   ar
     6     6     7   ar
     7     7     8   ar
     8     8     9   ar
     9     9    10   ar
    10    10    12    1
    11    12    13   ar
    12    13    14   ar
    13    14    15   ar
    14    15    18    1
    15    18    19   ar
    16    19    20   ar
    17    20    21   ar
    18    21    22   ar
    19    22    23   ar
    20    15    16   ar
    21    16    17   ar
    22    10    11   ar
    23    11    24    1
    24    24    25    1
    25    25    26   ar
    26    26    27   ar
    27    27    28   ar
    28    28    29   ar
    29    29    30   ar
    30    11     2   ar
    31    30    25   ar
    32     8     3   ar
    33    17    12   ar
    34    23    18   ar
@<TRIPOS>MOLECULE
*****
 30 34 0 0 0
SMALL
GASTEIGER

@<TRIPOS>ATOM
      1 O          63.8631   92.3333   11.3737 O.2     1  UNL1       -0.2669
      2 C          64.3681   91.3988   12.4328 C.ar    1  UNL1        0.2636
      3 C          65.2964   91.9033   13.4976 C.ar    1  UNL1        0.0739
      4 C          65.7197   93.3423   13.5033 C.ar    1  UNL1        0.0063
      5 C          66.6479   93.8467   14.5681 C.ar    1  UNL1        0.0003
      6 C          67.1529   92.9122   15.6272 C.ar    1  UNL1        0.0015
      7 C          66.7296   91.4732   15.6214 C.ar    1  UNL1        0.0193
      8 C          65.8014   90.9687   14.5566 C.ar    1  UNL1        0.0875
      9 N          65.3780   89.5297   14.5509 N.ar    1  UNL1       -0.2280
     10 C          64.4498   89.0252   13.4861 C.ar    1  UNL1        0.1462
     11 N          63.9448   89.9598   12.4270 N.ar    1  UNL1       -0.2763
     12 C          64.0265   87.5862   13.4803 C.ar    1  UNL1        0.0342
     13 C          64.3840   86.6946   14.6323 C.ar    1  UNL1        0.0030
     14 C          63.9607   85.2556   14.6266 C.ar    1  UNL1        0.0001
     15 C          63.1799   84.7082   13.4688 C.ar    1  UNL1        0.0000
     16 C          62.8224   85.5997   12.3167 C.ar    1  UNL1        0.0001
     17 C          63.2456   87.0387   12.3225 C.ar    1  UNL1        0.0030
     18 C          62.7566   83.2691   13.4630 C.ar    1  UNL1        0.0000
     19 C          63.2109   82.3581   12.3613 C.ar    1  UNL1        0.0000
     20 C          62.7877   80.9191   12.3555 C.ar    1  UNL1        0.0000
     21 C          61.9100   80.3911   13.4513 C.ar    1  UNL1        0.0000
     22 C          61.4557   81.3021   14.5530 C.ar    1  UNL1        0.0000
     23 C          61.8790   82.7411   14.5588 C.ar    1  UNL1        0.0000
     24 C          63.0165   89.4553   11.3622 C.3     1  UNL1        0.1387
     25 C          61.5521   89.7727   11.4319 C.ar    1  UNL1        0.0197
     26 C          60.7514   89.3593   12.6309 C.ar    1  UNL1        0.0007
     27 C          59.2870   89.6767   12.7006 C.ar    1  UNL1        0.0204
     28 C          58.6234   90.4076   11.5713 C.ar    1  UNL1        0.0989
     29 N          59.4242   90.8211   10.3721 N.ar    1  UNL1       -0.2426
     30 C          60.8886   90.5036   10.3024 C.ar    1  UNL1        0.0965
@<TRIPOS>BOND
     1     1     2    2
     2     2     3   ar
     3     3     4   ar
     4     4     5   ar
     5     5     6   ar
     6     6     7   ar
     7     7     8   ar
     8     8     9   ar
     9     9    10   ar
    10    10    12    1
    11    12    13   ar
    12    13    14   ar
    13    14    15   ar
    14    15    18    1
    15    18    19   ar
    16    19    20   ar
    17    20    21   ar
    18    21    22   ar
    19    22    23   ar
    20    15    16   ar
    21    16    17   ar
    22    10    11   ar
    23    11    24    1
    24    24    25    1
    25    25    26   ar
    26    26    27   ar
    27    27    28   ar
    28    28    29   ar
    29    29    30   ar
    30    11     2   ar
    31    30    25   ar
    32     8     3   ar
    33    17    12   ar
    34    23    18   ar
@<TRIPOS>MOLECULE
*****
 30 34 0 0 0
SMALL
GASTEIGER

@<TRIPOS>ATOM
      1 O          59.8446   96.8548   -6.2475 O.2     1  UNL1       -0.2669
      2 C          58.8932   96.1357   -5.3377 C.ar    1  UNL1        0.2636
      3 C          57.4514   95.9890   -5.7248 C.ar    1  UNL1        0.0739
      4 C          56.9611   96.5613   -7.0217 C.ar    1  UNL1        0.0063
      5 C          55.5194   96.4146   -7.4087 C.ar    1  UNL1        0.0003
      6 C          54.5680   95.6955   -6.4989 C.ar    1  UNL1        0.0015
      7 C          55.0583   95.1232   -5.2020 C.ar    1  UNL1        0.0193
      8 C          56.5000   95.2699   -4.8150 C.ar    1  UNL1        0.0875
      9 N          56.9904   94.6975   -3.5180 N.ar    1  UNL1       -0.2280
     10 C          58.4321   94.8443   -3.1309 C.ar    1  UNL1        0.1462
     11 N          59.3835   95.5633   -4.0408 N.ar    1  UNL1       -0.2763
     12 C          58.9225   94.2719   -1.8340 C.ar    1  UNL1        0.0342
     13 C          59.2792   92.8178   -1.7432 C.ar    1  UNL1        0.0030
     14 C          59.7696   92.2454   -0.4463 C.ar    1  UNL1        0.0001
     15 C          59.9033   93.1272    0.7597 C.ar    1  UNL1        0.0000
     16 C          59.5466   94.5813    0.6689 C.ar    1  UNL1        0.0001
     17 C          59.0562   95.1537   -0.6280 C.ar    1  UNL1        0.0030
     18 C          60.3937   92.5548    2.0567 C.ar    1  UNL1        0.0000
     19 C          59.4655   92.4543    3.2307 C.ar    1  UNL1        0.0000
     20 C          59.9558   91.8820    4.5276 C.ar    1  UNL1        0.0000
     21 C          61.3743   91.4102    4.6504 C.ar    1  UNL1        0.0000
     22 C          62.3025   91.5107    3.4764 C.ar    1  UNL1        0.0000
     23 C          61.8122   92.0830    2.1795 C.ar    1  UNL1        0.0000
     24 C          60.8253   95.7101   -3.6536 C.3     1  UNL1        0.1387
     25 C          61.8235   94.6714   -4.0716 C.ar    1  UNL1        0.0197
     26 C          62.4647   93.7899   -3.0412 C.ar    1  UNL1        0.0007
     27 C          63.4629   92.7512   -3.4591 C.ar    1  UNL1        0.0204
     28 C          63.8199   92.5939   -4.9075 C.ar    1  UNL1        0.0989
     29 N          63.1787   93.4754   -5.9380 N.ar    1  UNL1       -0.2426
     30 C          62.1805   94.5141   -5.5200 C.ar    1  UNL1        0.0965
@<TRIPOS>BOND
     1     1     2    2
     2     2     3   ar
     3     3     4   ar
     4     4     5   ar
     5     5     6   ar
     6     6     7   ar
     7     7     8   ar
     8     8     9   ar
     9     9    10   ar
    10    10    12    1
    11    12    13   ar
    12    13    14   ar
    13    14    15   ar
    14    15    18    1
    15    18    19   ar
    16    19    20   ar
    17    20    21   ar
    18    21    22   ar
    19    22    23   ar
    20    15    16   ar
    21    16    17   ar
    22    10    11   ar
    23    11    24    1
    24    24    25    1
    25    25    26   ar
    26    26    27   ar
    27    27    28   ar
    28    28    29   ar
    29    29    30   ar
    30    11     2   ar
    31    30    25   ar
    32     8     3   ar
    33    17    12   ar
    34    23    18   ar
@<TRIPOS>MOLECULE
*****
 30 34 0 0 0
SMALL
GASTEIGER

@<TRIPOS>ATOM
      1 O          62.9628   82.4365    9.5480 O.2     1  UNL1       -0.2669
      2 C          63.0666   82.7070   11.0197 C.ar    1  UNL1        0.2636
      3 C          62.8893   81.5876   12.0024 C.ar    1  UNL1        0.0739
      4 C          62.6081   80.1978   11.5133 C.ar    1  UNL1        0.0063
      5 C          62.4307   79.0785   12.4960 C.ar    1  UNL1        0.0003
      6 C          62.5346   79.3490   13.9677 C.ar    1  UNL1        0.0015
      7 C          62.8158   80.7388   14.4568 C.ar    1  UNL1        0.0193
      8 C          62.9931   81.8581   13.4741 C.ar    1  UNL1        0.0875
      9 N          63.2744   83.2481   13.9632 N.ar    1  UNL1       -0.2280
     10 C          63.4517   84.3674   12.9806 C.ar    1  UNL1        0.1462
     11 N          63.3478   84.0968   11.5088 N.ar    1  UNL1       -0.2763
     12 C          63.7329   85.7573   13.4696 C.ar    1  UNL1        0.0342
     13 C          64.4356   85.9639   14.7786 C.ar    1  UNL1        0.0030
     14 C          64.7168   87.3537   15.2677 C.ar    1  UNL1        0.0001
     15 C          64.2954   88.5369   14.4478 C.ar    1  UNL1        0.0000
     16 C          63.5927   88.3303   13.1388 C.ar    1  UNL1        0.0001
     17 C          63.3115   86.9405   12.6497 C.ar    1  UNL1        0.0030
     18 C          64.5766   89.9269   14.9369 C.ar    1  UNL1        0.0000
     19 C          63.7815   90.4971   16.0738 C.ar    1  UNL1        0.0000
     20 C          64.0627   91.8869   16.5629 C.ar    1  UNL1        0.0000
     21 C          65.1389   92.7065   15.9150 C.ar    1  UNL1        0.0000
     22 C          65.9340   92.1363   14.7780 C.ar    1  UNL1        0.0000
     23 C          65.6529   90.7465   14.2890 C.ar    1  UNL1        0.0000
     24 C          63.5252   85.2162   10.5261 C.3     1  UNL1        0.1387
     25 C          62.4095   85.5768    9.5906 C.ar    1  UNL1        0.0197
     26 C          62.5190   85.2489    8.1311 C.ar    1  UNL1        0.0007
     27 C          61.4033   85.6095    7.1956 C.ar    1  UNL1        0.0204
     28 C          60.1780   86.2979    7.7197 C.ar    1  UNL1        0.0989
     29 N          60.0684   86.6258    9.1793 N.ar    1  UNL1       -0.2426
     30 C          61.1842   86.2653   10.1148 C.ar    1  UNL1        0.0965
@<TRIPOS>BOND
     1     1     2    2
     2     2     3   ar
     3     3     4   ar
     4     4     5   ar
     5     5     6   ar
     6     6     7   ar
     7     7     8   ar
     8     8     9   ar
     9     9    10   ar
    10    10    12    1
    11    12    13   ar
    12    13    14   ar
    13    14    15   ar
    14    15    18    1
    15    18    19   ar
    16    19    20   ar
    17    20    21   ar
    18    21    22   ar
    19    22    23   ar
    20    15    16   ar
    21    16    17   ar
    22    10    11   ar
    23    11    24    1
    24    24    25    1
    25    25    26   ar
    26    26    27   ar
    27    27    28   ar
    28    28    29   ar
    29    29    30   ar
    30    11     2   ar
    31    30    25   ar
    32     8     3   ar
    33    17    12   ar
    34    23    18   ar
@<TRIPOS>MOLECULE
*****
 30 34 0 0 0
SMALL
GASTEIGER

@<TRIPOS>ATOM
      1 O          73.6330   75.7060   17.1430 O.2     1  UNL1       -0.2669
      2 C          72.9623   75.3989   15.8370 C.ar    1  UNL1        0.2636
      3 C          72.2929   74.0723   15.6313 C.ar    1  UNL1        0.0739
      4 C          72.2943   73.0530   16.7317 C.ar    1  UNL1        0.0063
      5 C          71.6249   71.7265   16.5261 C.ar    1  UNL1        0.0003
      6 C          70.9542   71.4193   15.2200 C.ar    1  UNL1        0.0015
      7 C          70.9528   72.4387   14.1196 C.ar    1  UNL1        0.0193
      8 C          71.6222   73.7652   14.3253 C.ar    1  UNL1        0.0875
      9 N          71.6208   74.7846   13.2249 N.ar    1  UNL1       -0.2280
     10 C          72.2902   76.1111   13.4305 C.ar    1  UNL1        0.1462
     11 N          72.9609   76.4182   14.7366 N.ar    1  UNL1       -0.2763
     12 C          72.2888   77.1305   12.3301 C.ar    1  UNL1        0.0342
     13 C          71.0908   78.0091   12.1232 C.ar    1  UNL1        0.0030
     14 C          71.0894   79.0285   11.0228 C.ar    1  UNL1        0.0001
     15 C          72.2860   79.1693   10.1294 C.ar    1  UNL1        0.0000
     16 C          73.4840   78.2906   10.3363 C.ar    1  UNL1        0.0001
     17 C          73.4854   77.2713   11.4367 C.ar    1  UNL1        0.0030
     18 C          72.2847   80.1887    9.0290 C.ar    1  UNL1        0.0000
     19 C          72.1984   81.6492    9.3598 C.ar    1  UNL1        0.0000
     20 C          72.1971   82.6686    8.2595 C.ar    1  UNL1        0.0000
     21 C          72.2819   82.2275    6.8283 C.ar    1  UNL1        0.0000
     22 C          72.3682   80.7670    6.4975 C.ar    1  UNL1        0.0000
     23 C          72.3696   79.7476    7.5979 C.ar    1  UNL1        0.0000
     24 C          73.6303   77.7448   14.9422 C.3     1  UNL1        0.1387
     25 C          73.1655   78.6575   16.0382 C.ar    1  UNL1        0.0197
     26 C          72.2335   79.7905   15.7260 C.ar    1  UNL1        0.0007
     27 C          71.7688   80.7031   16.8219 C.ar    1  UNL1        0.0204
     28 C          72.2361   80.4828   18.2301 C.ar    1  UNL1        0.0989
     29 N          73.1682   79.3497   18.5424 N.ar    1  UNL1       -0.2426
     30 C          73.6329   78.4370   17.4464 C.ar    1  UNL1        0.0965
@<TRIPOS>BOND
     1     1     2    2
     2     2     3   ar
     3     3     4   ar
     4     4     5   ar
     5     5     6   ar
     6     6     7   ar
     7     7     8   ar
     8     8     9   ar
     9     9    10   ar
    10    10    12    1
    11    12    13   ar
    12    13    14   ar
    13    14    15   ar
    14    15    18    1
    15    18    19   ar
    16    19    20   ar
    17    20    21   ar
    18    21    22   ar
    19    22    23   ar
    20    15    16   ar
    21    16    17   ar
    22    10    11   ar
    23    11    24    1
    24    24    25    1
    25    25    26   ar
    26    26    27   ar
    27    27    28   ar
    28    28    29   ar
    29    29    30   ar
    30    11     2   ar
    31    30    25   ar
    32     8     3   ar
    33    17    12   ar
    34    23    18   ar
@<TRIPOS>MOLECULE
*****
 30 34 0 0 0
SMALL
GASTEIGER

@<TRIPOS>ATOM
      1 O          67.5821   93.3092   12.7240 O.2     1  UNL1       -0.2669
      2 C          66.3911   92.5509   13.2306 C.ar    1  UNL1        0.2636
      3 C          66.1062   92.4982   14.7024 C.ar    1  UNL1        0.0739
      4 C          67.0122   93.2037   15.6675 C.ar    1  UNL1        0.0063
      5 C          66.7272   93.1510   17.1392 C.ar    1  UNL1        0.0003
      6 C          65.5362   92.3927   17.6458 C.ar    1  UNL1        0.0015
      7 C          64.6303   91.6871   16.6808 C.ar    1  UNL1        0.0193
      8 C          64.9153   91.7399   15.2091 C.ar    1  UNL1        0.0875
      9 N          64.0093   91.0343   14.2439 N.ar    1  UNL1       -0.2280
     10 C          64.2942   91.0871   12.7722 C.ar    1  UNL1        0.1462
     11 N          65.4852   91.8454   12.2656 N.ar    1  UNL1       -0.2763
     12 C          63.3883   90.3815   11.8070 C.ar    1  UNL1        0.0342
     13 C          62.7382   91.1465   10.6924 C.ar    1  UNL1        0.0030
     14 C          61.8322   90.4410    9.7273 C.ar    1  UNL1        0.0001
     15 C          61.5764   88.9706    9.8768 C.ar    1  UNL1        0.0000
     16 C          62.2264   88.2056   10.9913 C.ar    1  UNL1        0.0001
     17 C          63.1324   88.9111   11.9565 C.ar    1  UNL1        0.0030
     18 C          60.6704   88.2650    8.9116 C.ar    1  UNL1        0.0000
     19 C          59.7297   89.0554    8.0512 C.ar    1  UNL1        0.0000
     20 C          58.8237   88.3500    7.0861 C.ar    1  UNL1        0.0000
     21 C          58.8585   86.8541    6.9814 C.ar    1  UNL1        0.0000
     22 C          59.7992   86.0636    7.8418 C.ar    1  UNL1        0.0000
     23 C          60.7051   86.7691    8.8069 C.ar    1  UNL1        0.0000
     24 C          65.7701   91.8981   10.7938 C.3     1  UNL1        0.1387
     25 C          66.2646   93.1698   10.1707 C.ar    1  UNL1        0.0197
     26 C          67.5411   93.1721    9.3829 C.ar    1  UNL1        0.0007
     27 C          68.0355   94.4439    8.7598 C.ar    1  UNL1        0.0204
     28 C          67.2536   95.7132    8.9245 C.ar    1  UNL1        0.0989
     29 N          65.9770   95.7109    9.7123 N.ar    1  UNL1       -0.2426
     30 C          65.4826   94.4392   10.3354 C.ar    1  UNL1        0.0965
@<TRIPOS>BOND
     1     1     2    2
     2     2     3   ar
     3     3     4   ar
     4     4     5   ar
     5     5     6   ar
     6     6     7   ar
     7     7     8   ar
     8     8     9   ar
     9     9    10   ar
    10    10    12    1
    11    12    13   ar
    12    13    14   ar
    13    14    15   ar
    14    15    18    1
    15    18    19   ar
    16    19    20   ar
    17    20    21   ar
    18    21    22   ar
    19    22    23   ar
    20    15    16   ar
    21    16    17   ar
    22    10    11   ar
    23    11    24    1
    24    24    25    1
    25    25    26   ar
    26    26    27   ar
    27    27    28   ar
    28    28    29   ar
    29    29    30   ar
    30    11     2   ar
    31    30    25   ar
    32     8     3   ar
    33    17    12   ar
    34    23    18   ar
