@<TRIPOS>MOLECULE
*****
 30 32 0 0 0
SMALL
GASTEIGER

@<TRIPOS>ATOM
      1 N          63.8822   90.9663   13.4316 N.am    1  UNL1       -0.2588
      2 C          64.9485   92.0008   13.6380 C.2     1  UNL1        0.3219
      3 O          65.4944   92.4527   14.9600 O.2     1  UNL1       -0.2510
      4 N          65.3730   92.5043   12.2903 N.am    1  UNL1       -0.1885
      5 C          64.5691   91.7808   11.2509 C.3     1  UNL1        0.1388
      6 C          63.6477   90.8302   11.9562 C.3     1  UNL1        0.1208
      7 C          62.6645   89.9060   11.3013 C.ar    1  UNL1       -0.0023
      8 C          62.7693   88.4251   11.5160 C.ar    1  UNL1        0.0005
      9 C          61.7860   87.5009   10.8611 C.ar    1  UNL1        0.0366
     10 C          60.6980   88.0575    9.9913 C.ar    1  UNL1        0.1387
     11 C          60.5932   89.5383    9.7765 C.ar    1  UNL1        0.0366
     12 C          61.5764   90.4625   10.4315 C.ar    1  UNL1        0.0005
     13 O          59.7148   87.1332    9.3363 O.3     1  UNL1       -0.4714
     14 C          59.2634   87.3931    7.9297 C.3     1  UNL1        0.2525
     15 N          66.4180   93.5479   12.0280 N.3     1  UNL1       -0.1073
     16 H          67.2837   93.2100   12.4485 H       1  UNL1        0.1715
     17 S          66.7465   93.9427   10.6187 S.O2    1  UNL1        0.0573
     18 C          67.0750   94.3375    9.2094 C.3     1  UNL1        0.1974
     19 O          67.7875   92.8644   10.5593 O.2     1  UNL1       -0.1561
     20 O          65.7054   95.0210   10.6781 O.2     1  UNL1       -0.1561
     21 C          63.1746   90.2019   14.5109 C.3     1  UNL1        0.1000
     22 C          63.9642   89.4041   15.5059 C.3     1  UNL1        0.0479
     23 C          63.5683   84.9229   15.6190 C.ar    1  UNL1        0.1387
     24 C          63.0225   85.7527   16.7430 C.ar    1  UNL1        0.0366
     25 C          63.1544   87.2464   16.7053 C.ar    1  UNL1       -0.0011
     26 C          63.8322   87.9104   15.5436 C.ar    1  UNL1       -0.0203
     27 C          64.3781   87.0806   14.4196 C.ar    1  UNL1       -0.0011
     28 C          64.2462   85.5869   14.4573 C.ar    1  UNL1        0.0366
     29 C          62.7640   82.7070   14.5270 C.3     1  UNL1        0.2525
     30 O          63.4364   83.4292   15.6567 O.3     1  UNL1       -0.4714
@<TRIPOS>BOND
     1    29    30    1
     2    30    23    1
     3    23    24   ar
     4    24    25   ar
     5    25    26   ar
     6    26    22    1
     7    22    21    1
     8    21     1    1
     9     1     2   am
    10     2     3    2
    11     2     4   am
    12     4    15    1
    13    15    17    1
    14    17    18    1
    15    17    19    2
    16    17    20    2
    17     4     5    1
    18     5     6    1
    19     6     7    1
    20     7     8   ar
    21     8     9   ar
    22     9    10   ar
    23    10    13    1
    24    13    14    1
    25    10    11   ar
    26    11    12   ar
    27    26    27   ar
    28    27    28   ar
    29    28    23   ar
    30     6     1    1
    31    12     7   ar
    32    15    16    1
@<TRIPOS>MOLECULE
*****
 30 32 0 0 0
SMALL
GASTEIGER

@<TRIPOS>ATOM
      1 N          60.5233   87.8166    9.0936 N.am    1  UNL1       -0.2588
      2 C          59.6157   87.7090    7.9042 C.2     1  UNL1        0.3219
      3 O          59.0218   86.4437    7.3599 O.2     1  UNL1       -0.2510
      4 N          59.4063   89.0889    7.3546 N.am    1  UNL1       -0.1885
      5 C          60.1845   90.0493    8.2043 C.3     1  UNL1        0.1388
      6 C          60.8748   89.2630    9.2791 C.3     1  UNL1        0.1208
      7 C          61.7611   89.8245   10.3511 C.ar    1  UNL1       -0.0023
      8 C          62.8448   90.7984    9.9946 C.ar    1  UNL1        0.0005
      9 C          63.7311   91.3598   11.0666 C.ar    1  UNL1        0.0366
     10 C          63.5336   90.9474   12.4952 C.ar    1  UNL1        0.1387
     11 C          62.4499   89.9736   12.8518 C.ar    1  UNL1        0.0366
     12 C          61.5637   89.4121   11.7798 C.ar    1  UNL1        0.0005
     13 O          64.4199   91.5089   13.5673 O.3     1  UNL1       -0.4714
     14 C          65.6680   92.2529   13.1952 C.3     1  UNL1        0.2525
     15 N          58.5663   89.4458    6.1643 N.3     1  UNL1       -0.1073
     16 H          57.5958   89.4456    6.4781 H       1  UNL1        0.1715
     17 S          58.7904   90.7460    5.4508 S.O2    1  UNL1        0.0573
     18 C          59.0145   92.0463    4.7373 C.3     1  UNL1        0.1974
     19 O          60.2508   90.4267    5.3277 O.2     1  UNL1       -0.1561
     20 O          57.3299   91.0653    5.5739 O.2     1  UNL1       -0.1561
     21 C          60.9963   86.6777    9.9476 C.3     1  UNL1        0.1000
     22 C          62.3238   86.0355    9.6732 C.3     1  UNL1        0.0479
     23 C          63.7302   82.6005   12.2173 C.ar    1  UNL1        0.1387
     24 C          64.0761   82.6441   10.7584 C.ar    1  UNL1        0.0366
     25 C          63.6073   83.7891    9.9104 C.ar    1  UNL1       -0.0011
     26 C          62.7926   84.8905   10.5212 C.ar    1  UNL1       -0.0203
     27 C          62.4467   84.8469   11.9801 C.ar    1  UNL1       -0.0011
     28 C          62.9155   83.7019   12.8282 C.ar    1  UNL1        0.0366
     29 C          63.1996   80.5510   13.7233 C.3     1  UNL1        0.2525
     30 O          64.1990   81.4555   13.0654 O.3     1  UNL1       -0.4714
@<TRIPOS>BOND
     1    29    30    1
     2    30    23    1
     3    23    24   ar
     4    24    25   ar
     5    25    26   ar
     6    26    22    1
     7    22    21    1
     8    21     1    1
     9     1     2   am
    10     2     3    2
    11     2     4   am
    12     4    15    1
    13    15    17    1
    14    17    18    1
    15    17    19    2
    16    17    20    2
    17     4     5    1
    18     5     6    1
    19     6     7    1
    20     7     8   ar
    21     8     9   ar
    22     9    10   ar
    23    10    13    1
    24    13    14    1
    25    10    11   ar
    26    11    12   ar
    27    26    27   ar
    28    27    28   ar
    29    28    23   ar
    30     6     1    1
    31    12     7   ar
    32    15    16    1
@<TRIPOS>MOLECULE
*****
 30 32 0 0 0
SMALL
GASTEIGER

@<TRIPOS>ATOM
      1 N          63.8809   90.2205   13.2875 N.am    1  UNL1       -0.2588
      2 C          64.7774   91.3828   13.5962 C.2     1  UNL1        0.3219
      3 O          65.4409   91.6592   14.9127 O.2     1  UNL1       -0.2510
      4 N          64.8940   92.2202   12.3571 N.am    1  UNL1       -0.1885
      5 C          64.0695   91.5754   11.2827 C.3     1  UNL1        0.1388
      6 C          63.4434   90.3395   11.8576 C.3     1  UNL1        0.1208
      7 C          62.5386   89.3895   11.1304 C.ar    1  UNL1       -0.0023
      8 C          61.5277   89.9150   10.1546 C.ar    1  UNL1        0.0005
      9 C          60.6229   88.9649    9.4275 C.ar    1  UNL1        0.0366
     10 C          60.7290   87.4895    9.6761 C.ar    1  UNL1        0.1387
     11 C          61.7398   86.9640   10.6518 C.ar    1  UNL1        0.0366
     12 C          62.6446   87.9141   11.3789 C.ar    1  UNL1        0.0005
     13 O          59.8242   86.5394    8.9489 O.3     1  UNL1       -0.4714
     14 C          58.9845   87.0293    7.8066 C.3     1  UNL1        0.2525
     15 N          65.6945   93.4809   12.2171 N.3     1  UNL1       -0.1073
     16 H          66.3483   93.5030   12.9997 H       1  UNL1        0.1715
     17 S          66.4982   93.7249   10.9744 S.O2    1  UNL1        0.0573
     18 C          67.3019   93.9689    9.7316 C.3     1  UNL1        0.1974
     19 O          67.4484   92.6356   11.3750 O.2     1  UNL1       -0.1561
     20 O          65.5479   94.8143   10.5737 O.2     1  UNL1       -0.1561
     21 C          63.4905   89.1305   14.2412 C.3     1  UNL1        0.1000
     22 C          64.4640   88.0381   14.5709 C.3     1  UNL1        0.0479
     23 C          63.0268   83.7945   14.9909 C.ar    1  UNL1        0.1387
     24 C          63.1323   84.6739   16.2015 C.ar    1  UNL1        0.0366
     25 C          63.6114   86.0885   16.0614 C.ar    1  UNL1       -0.0011
     26 C          63.9849   86.6236   14.7109 C.ar    1  UNL1       -0.0203
     27 C          63.8794   85.7442   13.5003 C.ar    1  UNL1       -0.0011
     28 C          63.4003   84.3297   13.6404 C.ar    1  UNL1        0.0366
     29 C          62.6598   81.4322   13.9738 C.3     1  UNL1        0.2525
     30 O          62.5477   82.3800   15.1309 O.3     1  UNL1       -0.4714
@<TRIPOS>BOND
     1    29    30    1
     2    30    23    1
     3    23    24   ar
     4    24    25   ar
     5    25    26   ar
     6    26    22    1
     7    22    21    1
     8    21     1    1
     9     1     2   am
    10     2     3    2
    11     2     4   am
    12     4    15    1
    13    15    17    1
    14    17    18    1
    15    17    19    2
    16    17    20    2
    17     4     5    1
    18     5     6    1
    19     6     7    1
    20     7     8   ar
    21     8     9   ar
    22     9    10   ar
    23    10    13    1
    24    13    14    1
    25    10    11   ar
    26    11    12   ar
    27    26    27   ar
    28    27    28   ar
    29    28    23   ar
    30     6     1    1
    31    12     7   ar
    32    15    16    1
@<TRIPOS>MOLECULE
*****
 30 32 0 0 0
SMALL
GASTEIGER

@<TRIPOS>ATOM
      1 N          65.5709   91.8657   13.0464 N.am    1  UNL1       -0.2588
      2 C          66.5059   93.0324   12.9264 C.2     1  UNL1        0.3219
      3 O          67.6206   93.3699   13.8718 O.2     1  UNL1       -0.2510
      4 N          66.1307   93.8025   11.6951 N.am    1  UNL1       -0.1885
      5 C          64.9637   93.1117   11.0540 C.3     1  UNL1        0.1388
      6 C          64.6177   91.9147   11.8892 C.3     1  UNL1        0.1208
      7 C          63.5126   90.9382   11.6152 C.ar    1  UNL1       -0.0023
      8 C          62.4689   90.6742   12.6598 C.ar    1  UNL1        0.0005
      9 C          61.3637   89.6977   12.3858 C.ar    1  UNL1        0.0366
     10 C          61.3023   88.9850   11.0674 C.ar    1  UNL1        0.1387
     11 C          62.3460   89.2489   10.0228 C.ar    1  UNL1        0.0366
     12 C          63.4511   90.2255   10.2968 C.ar    1  UNL1        0.0005
     13 O          60.1972   88.0085   10.7934 O.3     1  UNL1       -0.4714
     14 C          60.1744   87.2444    9.5028 C.3     1  UNL1        0.2525
     15 N          66.8041   95.0452   11.1929 N.3     1  UNL1       -0.1073
     16 H          67.7238   95.0799   11.6328 H       1  UNL1        0.1715
     17 S          67.0205   95.2385    9.7213 S.O2    1  UNL1        0.0573
     18 C          67.2368   95.4319    8.2496 C.3     1  UNL1        0.1974
     19 O          68.1444   94.2458    9.7560 O.2     1  UNL1       -0.1561
     20 O          65.8965   96.2313    9.6866 O.2     1  UNL1       -0.1561
     21 C          65.5863   90.8315   14.1328 C.3     1  UNL1        0.1000
     22 C          64.3655   90.6114   14.9760 C.3     1  UNL1        0.0479
     23 C          63.2584   86.4522   16.2896 C.ar    1  UNL1        0.1387
     24 C          64.0555   86.6553   15.0354 C.ar    1  UNL1        0.0366
     25 C          64.4245   88.0417   14.5975 C.ar    1  UNL1       -0.0011
     26 C          63.9964   89.2250   15.4139 C.ar    1  UNL1       -0.0203
     27 C          63.1993   89.0218   16.6682 C.ar    1  UNL1       -0.0011
     28 C          62.8302   87.6355   17.1060 C.ar    1  UNL1        0.0366
     29 C          62.6204   84.0027   15.7041 C.3     1  UNL1        0.2525
     30 O          62.8893   85.0658   16.7275 O.3     1  UNL1       -0.4714
@<TRIPOS>BOND
     1    29    30    1
     2    30    23    1
     3    23    24   ar
     4    24    25   ar
     5    25    26   ar
     6    26    22    1
     7    22    21    1
     8    21     1    1
     9     1     2   am
    10     2     3    2
    11     2     4   am
    12     4    15    1
    13    15    17    1
    14    17    18    1
    15    17    19    2
    16    17    20    2
    17     4     5    1
    18     5     6    1
    19     6     7    1
    20     7     8   ar
    21     8     9   ar
    22     9    10   ar
    23    10    13    1
    24    13    14    1
    25    10    11   ar
    26    11    12   ar
    27    26    27   ar
    28    27    28   ar
    29    28    23   ar
    30     6     1    1
    31    12     7   ar
    32    15    16    1
@<TRIPOS>MOLECULE
*****
 30 32 0 0 0
SMALL
GASTEIGER

@<TRIPOS>ATOM
      1 N          63.7126   90.7672   14.4201 N.am    1  UNL1       -0.2588
      2 C          64.7822   91.7234   14.8576 C.2     1  UNL1        0.3219
      3 O          65.0992   92.1040   16.2735 O.2     1  UNL1       -0.2510
      4 N          65.4792   92.2324   13.6308 N.am    1  UNL1       -0.1885
      5 C          64.8404   91.5906   12.4349 C.3     1  UNL1        0.1388
      6 C          63.7485   90.6851   12.9227 C.3     1  UNL1        0.1208
      7 C          62.8504   89.8450   12.0639 C.ar    1  UNL1       -0.0023
      8 C          61.7876   90.4957   11.2289 C.ar    1  UNL1        0.0005
      9 C          60.8894   89.6555   10.3701 C.ar    1  UNL1        0.0366
     10 C          61.0540   88.1648   10.3464 C.ar    1  UNL1        0.1387
     11 C          62.1167   87.5141   11.1813 C.ar    1  UNL1        0.0366
     12 C          63.0148   88.3542   12.0401 C.ar    1  UNL1        0.0005
     13 O          60.1558   87.3247    9.4876 O.3     1  UNL1       -0.4714
     14 C          60.7389   86.4817    8.3924 C.3     1  UNL1        0.2525
     15 N          66.6155   93.2111   13.6044 N.3     1  UNL1       -0.1073
     16 H          66.2517   94.0944   13.9620 H       1  UNL1        0.1715
     17 S          67.8737   92.9204   14.3674 S.O2    1  UNL1        0.0573
     18 C          69.1320   92.6296   15.1305 C.3     1  UNL1        0.1974
     19 O          67.4935   93.9521   15.3876 O.2     1  UNL1       -0.1561
     20 O          68.2540   91.8886   13.3472 O.2     1  UNL1       -0.1561
     21 C          62.7721   90.0235   15.3215 C.3     1  UNL1        0.1000
     22 C          63.3139   89.1249   16.3934 C.3     1  UNL1        0.0479
     23 C          63.7705   84.7163   15.6152 C.ar    1  UNL1        0.1387
     24 C          62.9297   85.1922   16.7625 C.ar    1  UNL1        0.0366
     25 C          62.7775   86.6617   17.0219 C.ar    1  UNL1       -0.0011
     26 C          63.4661   87.6554   16.1340 C.ar    1  UNL1       -0.0203
     27 C          64.3069   87.1794   14.9866 C.ar    1  UNL1       -0.0011
     28 C          64.4591   85.7099   14.7272 C.ar    1  UNL1        0.0366
     29 C          63.8626   82.7228   13.9515 C.3     1  UNL1        0.2525
     30 O          63.9227   83.2468   15.3558 O.3     1  UNL1       -0.4714
@<TRIPOS>BOND
     1    29    30    1
     2    30    23    1
     3    23    24   ar
     4    24    25   ar
     5    25    26   ar
     6    26    22    1
     7    22    21    1
     8    21     1    1
     9     1     2   am
    10     2     3    2
    11     2     4   am
    12     4    15    1
    13    15    17    1
    14    17    18    1
    15    17    19    2
    16    17    20    2
    17     4     5    1
    18     5     6    1
    19     6     7    1
    20     7     8   ar
    21     8     9   ar
    22     9    10   ar
    23    10    13    1
    24    13    14    1
    25    10    11   ar
    26    11    12   ar
    27    26    27   ar
    28    27    28   ar
    29    28    23   ar
    30     6     1    1
    31    12     7   ar
    32    15    16    1
@<TRIPOS>MOLECULE
*****
 30 32 0 0 0
SMALL
GASTEIGER

@<TRIPOS>ATOM
      1 N          63.8316   91.1549   12.0933 N.am    1  UNL1       -0.2588
      2 C          64.6216   92.1108   11.2493 C.2     1  UNL1        0.3219
      3 O          64.2317   92.6191    9.8930 O.2     1  UNL1       -0.2510
      4 N          65.8700   92.4692   11.9998 N.am    1  UNL1       -0.1885
      5 C          65.8515   91.7348   13.3076 C.3     1  UNL1        0.1388
      6 C          64.5918   90.9225   13.3654 C.3     1  UNL1        0.1208
      7 C          64.1668   90.0340   14.4966 C.ar    1  UNL1       -0.0023
      8 C          64.3654   88.5502   14.4003 C.ar    1  UNL1        0.0005
      9 C          63.9403   87.6616   15.5315 C.ar    1  UNL1        0.0366
     10 C          63.3167   88.2567   16.7591 C.ar    1  UNL1        0.1387
     11 C          63.1181   89.7403   16.8556 C.ar    1  UNL1        0.0366
     12 C          63.5432   90.6289   15.7243 C.ar    1  UNL1        0.0005
     13 O          62.8917   87.3681   17.8904 O.3     1  UNL1       -0.4714
     14 C          62.4316   85.9678   17.6121 C.3     1  UNL1        0.2525
     15 N          66.9475   93.3987   11.5258 N.3     1  UNL1       -0.1073
     16 H          67.6462   93.4421   12.2676 H       1  UNL1        0.1715
     17 S          67.6850   93.1051   10.2531 S.O2    1  UNL1        0.0573
     18 C          68.4224   92.8114    8.9803 C.3     1  UNL1        0.1974
     19 O          68.4163   91.9868   10.9348 O.2     1  UNL1       -0.1561
     20 O          66.9536   94.2233    9.5713 O.2     1  UNL1       -0.1561
     21 C          62.5131   90.5395   11.7291 C.3     1  UNL1        0.1000
     22 C          62.3967   89.6886   10.4993 C.3     1  UNL1        0.0479
     23 C          62.4331   85.2028   10.8553 C.ar    1  UNL1        0.1387
     24 C          62.0827   85.8486    9.5476 C.ar    1  UNL1        0.0366
     25 C          62.0705   87.3439    9.4289 C.ar    1  UNL1       -0.0011
     26 C          62.4088   88.1933   10.6180 C.ar    1  UNL1       -0.0203
     27 C          62.7593   87.5476   11.9257 C.ar    1  UNL1       -0.0011
     28 C          62.7714   86.0523   12.0443 C.ar    1  UNL1        0.0366
     29 C          62.7634   83.0622   12.2900 C.3     1  UNL1        0.2525
     30 O          62.4453   83.7076   10.9739 O.3     1  UNL1       -0.4714
@<TRIPOS>BOND
     1    29    30    1
     2    30    23    1
     3    23    24   ar
     4    24    25   ar
     5    25    26   ar
     6    26    22    1
     7    22    21    1
     8    21     1    1
     9     1     2   am
    10     2     3    2
    11     2     4   am
    12     4    15    1
    13    15    17    1
    14    17    18    1
    15    17    19    2
    16    17    20    2
    17     4     5    1
    18     5     6    1
    19     6     7    1
    20     7     8   ar
    21     8     9   ar
    22     9    10   ar
    23    10    13    1
    24    13    14    1
    25    10    11   ar
    26    11    12   ar
    27    26    27   ar
    28    27    28   ar
    29    28    23   ar
    30     6     1    1
    31    12     7   ar
    32    15    16    1
@<TRIPOS>MOLECULE
*****
 30 32 0 0 0
SMALL
GASTEIGER

@<TRIPOS>ATOM
      1 N          63.2942   86.8956   12.7662 N.am    1  UNL1       -0.2588
      2 C          64.0012   86.0040   13.7435 C.2     1  UNL1        0.3219
      3 O          64.8746   86.4551   14.8765 O.2     1  UNL1       -0.2510
      4 N          63.6815   84.5820   13.3890 N.am    1  UNL1       -0.1885
      5 C          62.7769   84.5948   12.1925 C.3     1  UNL1        0.1388
      6 C          62.5375   86.0247   11.8075 C.3     1  UNL1        0.1208
      7 C          61.6903   86.5001   10.6648 C.ar    1  UNL1       -0.0023
      8 C          60.7298   87.6349   10.8645 C.ar    1  UNL1        0.0005
      9 C          59.8826   88.1104    9.7216 C.ar    1  UNL1        0.0366
     10 C          59.9958   87.4511    8.3791 C.ar    1  UNL1        0.1387
     11 C          60.9562   86.3164    8.1793 C.ar    1  UNL1        0.0366
     12 C          61.8034   85.8409    9.3221 C.ar    1  UNL1        0.0005
     13 O          59.1485   87.9266    7.2362 O.3     1  UNL1       -0.4714
     14 C          59.2827   89.3351    6.7383 C.3     1  UNL1        0.2525
     15 N          64.1789   83.3615   14.1051 N.3     1  UNL1       -0.1073
     16 H          64.1385   83.5687   15.1030 H       1  UNL1        0.1715
     17 S          63.4903   82.0435   13.9082 S.O2    1  UNL1        0.0573
     18 C          62.8017   80.7256   13.7113 C.3     1  UNL1        0.1974
     19 O          64.4279   81.7218   12.7825 O.2     1  UNL1       -0.1561
     20 O          62.5527   82.3653   15.0340 O.2     1  UNL1       -0.1561
     21 C          63.3365   88.3949   12.7503 C.3     1  UNL1        0.1000
     22 C          64.0567   89.1365   13.8371 C.3     1  UNL1        0.0479
     23 C          66.0132   93.0902   12.9482 C.ar    1  UNL1        0.1387
     24 C          66.3875   92.3296   14.1856 C.ar    1  UNL1        0.0366
     25 C          65.7354   91.0117   14.4819 C.ar    1  UNL1       -0.0011
     26 C          64.7088   90.4544   13.5408 C.ar    1  UNL1       -0.0203
     27 C          64.3345   91.2151   12.3034 C.ar    1  UNL1       -0.0011
     28 C          64.9867   92.5330   12.0071 C.ar    1  UNL1        0.0366
     29 C          66.2771   95.1780   11.4245 C.3     1  UNL1        0.2525
     30 O          66.6653   94.4082   12.6519 O.3     1  UNL1       -0.4714
@<TRIPOS>BOND
     1    29    30    1
     2    30    23    1
     3    23    24   ar
     4    24    25   ar
     5    25    26   ar
     6    26    22    1
     7    22    21    1
     8    21     1    1
     9     1     2   am
    10     2     3    2
    11     2     4   am
    12     4    15    1
    13    15    17    1
    14    17    18    1
    15    17    19    2
    16    17    20    2
    17     4     5    1
    18     5     6    1
    19     6     7    1
    20     7     8   ar
    21     8     9   ar
    22     9    10   ar
    23    10    13    1
    24    13    14    1
    25    10    11   ar
    26    11    12   ar
    27    26    27   ar
    28    27    28   ar
    29    28    23   ar
    30     6     1    1
    31    12     7   ar
    32    15    16    1
@<TRIPOS>MOLECULE
*****
 30 32 0 0 0
SMALL
GASTEIGER

@<TRIPOS>ATOM
      1 N          63.4823   90.5612   12.1539 N.am    1  UNL1       -0.2588
      2 C          64.1232   91.6679   11.3700 C.2     1  UNL1        0.3219
      3 O          63.6683   92.1817   10.0362 O.2     1  UNL1       -0.2510
      4 N          65.2989   92.1708   12.1542 N.am    1  UNL1       -0.1885
      5 C          65.3846   91.3748   13.4227 C.3     1  UNL1        0.1388
      6 C          64.2619   90.3800   13.4225 C.3     1  UNL1        0.1208
      7 C          63.9700   89.3798   14.5015 C.ar    1  UNL1       -0.0023
      8 C          63.3391   89.8260   15.7872 C.ar    1  UNL1        0.0005
      9 C          63.0472   88.8257   16.8662 C.ar    1  UNL1        0.0366
     10 C          63.3863   87.3792   16.6595 C.ar    1  UNL1        0.1387
     11 C          64.0172   86.9330   15.3739 C.ar    1  UNL1        0.0366
     12 C          64.3090   87.9333   14.2950 C.ar    1  UNL1        0.0005
     13 O          63.0944   86.3789   17.7385 O.3     1  UNL1       -0.4714
     14 C          62.6388   86.8446   19.0896 C.3     1  UNL1        0.2525
     15 N          66.2261   93.2755   11.7422 N.3     1  UNL1       -0.1073
     16 H          66.8326   93.4639   12.5404 H       1  UNL1        0.1715
     17 S          67.1204   93.0991   10.5510 S.O2    1  UNL1        0.0573
     18 C          68.0146   92.9227    9.3597 C.3     1  UNL1        0.1974
     19 O          66.2474   94.0262    9.7583 O.2     1  UNL1       -0.1561
     20 O          67.9933   92.1719   11.3437 O.2     1  UNL1       -0.1561
     21 C          62.2739   89.7739   11.7415 C.3     1  UNL1        0.1000
     22 C          61.6899   89.9584   10.3723 C.3     1  UNL1        0.0479
     23 C          60.5793   86.3681    7.8972 C.ar    1  UNL1        0.1387
     24 C          61.7719   86.3132    8.8053 C.ar    1  UNL1        0.0366
     25 C          62.1421   87.5100    9.6303 C.ar    1  UNL1       -0.0011
     26 C          61.3197   88.7617    9.5473 C.ar    1  UNL1       -0.0203
     27 C          60.1271   88.8165    8.6392 C.ar    1  UNL1       -0.0011
     28 C          59.7569   87.6197    7.8142 C.ar    1  UNL1        0.0366
     29 C          61.2642   84.4392    6.2971 C.3     1  UNL1        0.2525
     30 O          60.2091   85.1713    7.0722 O.3     1  UNL1       -0.4714
@<TRIPOS>BOND
     1    29    30    1
     2    30    23    1
     3    23    24   ar
     4    24    25   ar
     5    25    26   ar
     6    26    22    1
     7    22    21    1
     8    21     1    1
     9     1     2   am
    10     2     3    2
    11     2     4   am
    12     4    15    1
    13    15    17    1
    14    17    18    1
    15    17    19    2
    16    17    20    2
    17     4     5    1
    18     5     6    1
    19     6     7    1
    20     7     8   ar
    21     8     9   ar
    22     9    10   ar
    23    10    13    1
    24    13    14    1
    25    10    11   ar
    26    11    12   ar
    27    26    27   ar
    28    27    28   ar
    29    28    23   ar
    30     6     1    1
    31    12     7   ar
    32    15    16    1
@<TRIPOS>MOLECULE
*****
 30 32 0 0 0
SMALL
GASTEIGER

@<TRIPOS>ATOM
      1 N          63.0522   87.6094   12.3105 N.am    1  UNL1       -0.2588
      2 C          63.7219   86.7232   13.3186 C.2     1  UNL1        0.3219
      3 O          64.6332   87.1741   14.4215 O.2     1  UNL1       -0.2510
      4 N          63.3204   85.3070   13.0302 N.am    1  UNL1       -0.1885
      5 C          62.4025   85.3179   11.8439 C.3     1  UNL1        0.1388
      6 C          62.2367   86.7409   11.3990 C.3     1  UNL1        0.1208
      7 C          61.4021   87.2124   10.2454 C.ar    1  UNL1       -0.0023
      8 C          60.9791   86.2443    9.1805 C.ar    1  UNL1        0.0005
      9 C          60.1445   86.7159    8.0268 C.ar    1  UNL1        0.0366
     10 C          59.7328   88.1556    7.9380 C.ar    1  UNL1        0.1387
     11 C          60.1558   89.1237    9.0028 C.ar    1  UNL1        0.0366
     12 C          60.9904   88.6521   10.1565 C.ar    1  UNL1        0.0005
     13 O          58.8982   88.6272    6.7843 O.3     1  UNL1       -0.4714
     14 C          59.2772   89.8765    6.0457 C.3     1  UNL1        0.2525
     15 N          63.7596   84.0931   13.7940 N.3     1  UNL1       -0.1073
     16 H          64.0610   84.4167   14.7131 H       1  UNL1        0.1715
     17 S          62.7989   82.9646   14.0257 S.O2    1  UNL1        0.0573
     18 C          61.8383   81.8362   14.2574 C.3     1  UNL1        0.1974
     19 O          62.0714   83.7929   15.0429 O.2     1  UNL1       -0.1561
     20 O          63.5266   82.1364   13.0085 O.2     1  UNL1       -0.1561
     21 C          63.1762   89.1020   12.2283 C.3     1  UNL1        0.1000
     22 C          63.1436   89.9274   13.4803 C.3     1  UNL1        0.0479
     23 C          66.4249   92.8943   14.3055 C.ar    1  UNL1        0.1387
     24 C          65.8922   92.0371   15.4152 C.ar    1  UNL1        0.0366
     25 C          64.7985   91.0482   15.1402 C.ar    1  UNL1       -0.0011
     26 C          64.2374   90.9164   13.7554 C.ar    1  UNL1       -0.0203
     27 C          64.7700   91.7735   12.6456 C.ar    1  UNL1       -0.0011
     28 C          65.8637   92.7625   12.9207 C.ar    1  UNL1        0.0366
     29 C          68.4324   93.6841   15.7533 C.3     1  UNL1        0.2525
     30 O          67.5186   93.8832   14.5806 O.3     1  UNL1       -0.4714
@<TRIPOS>BOND
     1    29    30    1
     2    30    23    1
     3    23    24   ar
     4    24    25   ar
     5    25    26   ar
     6    26    22    1
     7    22    21    1
     8    21     1    1
     9     1     2   am
    10     2     3    2
    11     2     4   am
    12     4    15    1
    13    15    17    1
    14    17    18    1
    15    17    19    2
    16    17    20    2
    17     4     5    1
    18     5     6    1
    19     6     7    1
    20     7     8   ar
    21     8     9   ar
    22     9    10   ar
    23    10    13    1
    24    13    14    1
    25    10    11   ar
    26    11    12   ar
    27    26    27   ar
    28    27    28   ar
    29    28    23   ar
    30     6     1    1
    31    12     7   ar
    32    15    16    1
