@<TRIPOS>MOLECULE
*****
 31 34 0 0 0
SMALL
GASTEIGER

@<TRIPOS>ATOM
      1 C          61.1352   86.7912    9.7664 C.ar    1  UNL1        0.1295
      2 C          60.3847   86.2107    8.6045 C.ar    1  UNL1        0.0216
      3 C          59.6674   87.1158    7.6473 C.ar    1  UNL1        0.0178
      4 C          59.7005   88.6014    7.8520 C.ar    1  UNL1        0.0789
      5 N          60.4509   89.1819    9.0138 N.ar    1  UNL1       -0.2451
      6 C          61.1682   88.2768    9.9711 C.ar    1  UNL1        0.1172
      7 S          61.8525   85.8860   10.7235 S.O2    1  UNL1        0.0319
      8 O          62.5700   85.2406    9.5753 O.2     1  UNL1       -0.1641
      9 O          61.1349   86.5315   11.8717 O.2     1  UNL1       -0.1641
     10 N          63.4871   82.9956   12.7331 N.ar    1  UNL1       -0.2481
     11 C          62.6896   83.4903   11.5630 C.ar    1  UNL1        0.1154
     12 C          62.5698   84.9809   11.6806 C.ar    1  UNL1        0.1498
     13 C          63.2933   85.4074   12.9234 C.ar    1  UNL1        0.1404
     14 N          63.8602   84.1805   13.5739 N.ar    1  UNL1       -0.1662
     15 C          63.8481   81.5669   13.0133 C.3     1  UNL1        0.1276
     16 C          61.5137   81.0507   14.0303 C.3     1  UNL1        0.0021
     17 C          62.7779   80.5798   13.3744 C.3     1  UNL1        0.0264
     18 C          58.9831   89.5066    6.8948 C.3     1  UNL1        0.1361
     19 N          59.7565   90.2654    5.8575 N.am    1  UNL1       -0.2931
     20 C          59.0719   91.3099    5.0267 C.2     1  UNL1        0.2809
     21 O          57.6139   91.5956    5.2332 O.2     1  UNL1       -0.2668
     22 H          60.7134   90.0779    5.7219 H       1  UNL1        0.1502
     23 C          59.8453   92.0688    3.9894 C.ar    1  UNL1        0.1984
     24 C          61.2858   91.8536    3.6310 C.ar    1  UNL1        0.0453
     25 C          61.6448   92.8279    2.5484 C.ar    1  UNL1        0.0409
     26 C          62.9239   93.0764    1.8055 C.ar    1  UNL1        0.0238
     27 C          62.9843   94.1422    0.7518 C.ar    1  UNL1        0.0991
     28 N          61.7655   94.9595    0.4410 N.ar    1  UNL1       -0.2391
     29 C          60.4864   94.7110    1.1840 C.ar    1  UNL1        0.1362
     30 C          60.4260   93.6452    2.2377 C.ar    1  UNL1        0.1646
     31 O          59.3139   93.1760    3.1282 O.2     1  UNL1       -0.4473
@<TRIPOS>BOND
     1    16    17    1
     2    17    15    1
     3    15    10    1
     4    10    11   ar
     5    11    12   ar
     6    12     7    1
     7     7     8    2
     8     7     9    2
     9     7     1    1
    10     1     2   ar
    11     2     3   ar
    12     3     4   ar
    13     4    18    1
    14    18    19    1
    15    19    20   am
    16    20    21    2
    17    20    23    1
    18    23    24   ar
    19    24    25   ar
    20    25    26   ar
    21    26    27   ar
    22    27    28   ar
    23    28    29   ar
    24    29    30   ar
    25    30    31   ar
    26     4     5   ar
    27     5     6   ar
    28    12    13   ar
    29    13    14   ar
    30    14    10   ar
    31     6     1   ar
    32    31    23   ar
    33    30    25   ar
    34    19    22    1
@<TRIPOS>MOLECULE
*****
 31 34 0 0 0
SMALL
GASTEIGER

@<TRIPOS>ATOM
      1 C          65.4556   92.1890   12.8454 C.ar    1  UNL1        0.1295
      2 C          66.1749   91.8715   14.1228 C.ar    1  UNL1        0.0216
      3 C          65.7697   90.6773   14.9349 C.ar    1  UNL1        0.0178
      4 C          64.6450   89.8005   14.4696 C.ar    1  UNL1        0.0789
      5 N          63.9257   90.1179   13.1923 N.ar    1  UNL1       -0.2451
      6 C          64.3309   91.3122   12.3801 C.ar    1  UNL1        0.1172
      7 S          65.8608   93.3832   12.0333 S.O2    1  UNL1        0.0319
      8 O          66.8408   93.7754   13.0990 O.2     1  UNL1       -0.1641
      9 O          64.8809   92.9910   10.9675 O.2     1  UNL1       -0.1641
     10 N          66.9870   95.9747    9.3722 N.ar    1  UNL1       -0.2481
     11 C          66.6617   94.5667    9.7743 C.ar    1  UNL1        0.1154
     12 C          66.2661   94.5774   11.2212 C.ar    1  UNL1        0.1498
     13 C          66.3469   95.9920   11.7133 C.ar    1  UNL1        0.1404
     14 N          66.7925   96.8556   10.5707 N.ar    1  UNL1       -0.1662
     15 C          67.4293   96.4231    8.0109 C.3     1  UNL1        0.1276
     16 C          64.9761   96.8555    7.2726 C.3     1  UNL1        0.0021
     17 C          66.4169   96.6278    6.9231 C.3     1  UNL1        0.0264
     18 C          64.2398   88.6062   15.2818 C.3     1  UNL1        0.1361
     19 N          64.0538   87.2748   14.6164 N.am    1  UNL1       -0.2931
     20 C          63.4866   86.1221   15.3907 C.2     1  UNL1        0.2809
     21 O          63.1053   86.3008   16.8303 O.2     1  UNL1       -0.2668
     22 H          64.3041   87.1575   13.6715 H       1  UNL1        0.1502
     23 C          63.3006   84.7907   14.7253 C.ar    1  UNL1        0.1984
     24 C          62.4177   83.6788   15.2092 C.ar    1  UNL1        0.0453
     25 C          62.5363   82.5383   14.2421 C.ar    1  UNL1        0.0409
     26 C          61.8972   81.1818   14.2067 C.ar    1  UNL1        0.0238
     27 C          62.2143   80.2323   13.0896 C.ar    1  UNL1        0.0991
     28 N          63.1705   80.6393   12.0080 N.ar    1  UNL1       -0.2391
     29 C          63.8097   81.9958   12.0434 C.ar    1  UNL1        0.1362
     30 C          63.4926   82.9453   13.1605 C.ar    1  UNL1        0.1646
     31 O          63.9649   84.3374   13.4591 O.2     1  UNL1       -0.4473
@<TRIPOS>BOND
     1    16    17    1
     2    17    15    1
     3    15    10    1
     4    10    11   ar
     5    11    12   ar
     6    12     7    1
     7     7     8    2
     8     7     9    2
     9     7     1    1
    10     1     2   ar
    11     2     3   ar
    12     3     4   ar
    13     4    18    1
    14    18    19    1
    15    19    20   am
    16    20    21    2
    17    20    23    1
    18    23    24   ar
    19    24    25   ar
    20    25    26   ar
    21    26    27   ar
    22    27    28   ar
    23    28    29   ar
    24    29    30   ar
    25    30    31   ar
    26     4     5   ar
    27     5     6   ar
    28    12    13   ar
    29    13    14   ar
    30    14    10   ar
    31     6     1   ar
    32    31    23   ar
    33    30    25   ar
    34    19    22    1
@<TRIPOS>MOLECULE
*****
 31 34 0 0 0
SMALL
GASTEIGER

@<TRIPOS>ATOM
      1 C          61.0489   86.9619    9.5916 C.ar    1  UNL1        0.1295
      2 C          60.2736   86.3915    8.4411 C.ar    1  UNL1        0.0216
      3 C          59.6135   87.3077    7.4538 C.ar    1  UNL1        0.0178
      4 C          59.7287   88.7944    7.6170 C.ar    1  UNL1        0.0789
      5 N          60.5039   89.3648    8.7674 N.ar    1  UNL1       -0.2451
      6 C          61.1640   88.4486    9.7548 C.ar    1  UNL1        0.1172
      7 S          61.7090   86.0457   10.5789 S.O2    1  UNL1        0.0319
      8 O          62.4367   85.3632    9.4589 O.2     1  UNL1       -0.1641
      9 O          60.9812   86.7283   11.6989 O.2     1  UNL1       -0.1641
     10 N          63.3563   84.2593   13.6055 N.ar    1  UNL1       -0.2481
     11 C          62.7109   85.4643   12.9879 C.ar    1  UNL1        0.1154
     12 C          62.3690   85.1295   11.5662 C.ar    1  UNL1        0.1498
     13 C          62.8032   83.7177   11.3052 C.ar    1  UNL1        0.1404
     14 N          63.4133   83.1798   12.5655 N.ar    1  UNL1       -0.1662
     15 C          63.8568   84.1526   15.0155 C.3     1  UNL1        0.1276
     16 C          63.2682   86.0172   16.7263 C.3     1  UNL1        0.0021
     17 C          64.2401   85.3904   15.7711 C.3     1  UNL1        0.0264
     18 C          59.0685   89.7106    6.6296 C.3     1  UNL1        0.1361
     19 N          59.8893   90.3965    5.5779 N.am    1  UNL1       -0.2931
     20 C          59.2795   91.4803    4.7392 C.2     1  UNL1        0.2809
     21 O          57.8490   91.8782    4.9521 O.2     1  UNL1       -0.2668
     22 H          60.8282   90.1353    5.4382 H       1  UNL1        0.1502
     23 C          60.1003   92.1662    3.6876 C.ar    1  UNL1        0.1984
     24 C          59.5832   93.1075    2.6404 C.ar    1  UNL1        0.0453
     25 C          60.7456   93.5543    1.8041 C.ar    1  UNL1        0.0409
     26 C          60.8386   94.4809    0.6282 C.ar    1  UNL1        0.0238
     27 C          62.1671   94.7423   -0.0173 C.ar    1  UNL1        0.0991
     28 N          63.4025   94.0771    0.5130 N.ar    1  UNL1       -0.2391
     29 C          63.3094   93.1505    1.6888 C.ar    1  UNL1        0.1362
     30 C          61.9810   92.8891    2.3344 C.ar    1  UNL1        0.1646
     31 O          61.5821   92.0312    3.4984 O.2     1  UNL1       -0.4473
@<TRIPOS>BOND
     1    16    17    1
     2    17    15    1
     3    15    10    1
     4    10    11   ar
     5    11    12   ar
     6    12     7    1
     7     7     8    2
     8     7     9    2
     9     7     1    1
    10     1     2   ar
    11     2     3   ar
    12     3     4   ar
    13     4    18    1
    14    18    19    1
    15    19    20   am
    16    20    21    2
    17    20    23    1
    18    23    24   ar
    19    24    25   ar
    20    25    26   ar
    21    26    27   ar
    22    27    28   ar
    23    28    29   ar
    24    29    30   ar
    25    30    31   ar
    26     4     5   ar
    27     5     6   ar
    28    12    13   ar
    29    13    14   ar
    30    14    10   ar
    31     6     1   ar
    32    31    23   ar
    33    30    25   ar
    34    19    22    1
@<TRIPOS>MOLECULE
*****
 31 34 0 0 0
SMALL
GASTEIGER

@<TRIPOS>ATOM
      1 C          63.7043   86.3912   13.9840 C.ar    1  UNL1        0.1295
      2 C          63.5031   87.4026   12.8946 C.ar    1  UNL1        0.0216
      3 C          63.7669   88.8549   13.1615 C.ar    1  UNL1        0.0178
      4 C          64.2319   89.2959   14.5177 C.ar    1  UNL1        0.0789
      5 N          64.4331   88.2846   15.6070 N.ar    1  UNL1       -0.2451
      6 C          64.1693   86.8322   15.3402 C.ar    1  UNL1        0.1172
      7 S          63.4406   84.9389   13.7172 S.O2    1  UNL1        0.0319
      8 O          64.5294   84.5646   14.6785 O.2     1  UNL1       -0.1641
      9 O          62.3517   85.3133   12.7558 O.2     1  UNL1       -0.1641
     10 N          62.1712   81.2780   13.4894 N.ar    1  UNL1       -0.2481
     11 C          62.0514   82.6755   14.0211 C.ar    1  UNL1        0.1154
     12 C          63.1768   83.4867   13.4504 C.ar    1  UNL1        0.1498
     13 C          63.9920   82.5905   12.5659 C.ar    1  UNL1        0.1404
     14 N          63.3706   81.2255   12.5900 N.ar    1  UNL1       -0.1662
     15 C          61.2529   80.1340   13.8021 C.3     1  UNL1        0.1276
     16 C          58.9194   79.2595   14.5372 C.3     1  UNL1        0.0021
     17 C          59.8225   80.3989   14.1682 C.3     1  UNL1        0.0264
     18 C          64.4956   90.7483   14.7845 C.3     1  UNL1        0.1361
     19 N          64.7546   91.6856   13.6424 N.am    1  UNL1       -0.2931
     20 C          66.1513   92.1520   13.3569 C.2     1  UNL1        0.2809
     21 O          67.2891   91.6811   14.2134 O.2     1  UNL1       -0.2668
     22 H          64.0078   91.9947   13.0802 H       1  UNL1        0.1502
     23 C          66.4103   93.0894   12.2148 C.ar    1  UNL1        0.1984
     24 C          66.9663   92.7126   10.8736 C.ar    1  UNL1        0.0453
     25 C          67.0583   93.9585   10.0433 C.ar    1  UNL1        0.0409
     26 C          67.5321   94.1968    8.6402 C.ar    1  UNL1        0.0238
     27 C          67.5069   95.5820    8.0652 C.ar    1  UNL1        0.0991
     28 N          67.0078   96.7288    8.8933 N.ar    1  UNL1       -0.2391
     29 C          66.5340   96.4904   10.2964 C.ar    1  UNL1        0.1362
     30 C          66.5592   95.1053   10.8714 C.ar    1  UNL1        0.1646
     31 O          66.1587   94.5682   12.2134 O.2     1  UNL1       -0.4473
@<TRIPOS>BOND
     1    16    17    1
     2    17    15    1
     3    15    10    1
     4    10    11   ar
     5    11    12   ar
     6    12     7    1
     7     7     8    2
     8     7     9    2
     9     7     1    1
    10     1     2   ar
    11     2     3   ar
    12     3     4   ar
    13     4    18    1
    14    18    19    1
    15    19    20   am
    16    20    21    2
    17    20    23    1
    18    23    24   ar
    19    24    25   ar
    20    25    26   ar
    21    26    27   ar
    22    27    28   ar
    23    28    29   ar
    24    29    30   ar
    25    30    31   ar
    26     4     5   ar
    27     5     6   ar
    28    12    13   ar
    29    13    14   ar
    30    14    10   ar
    31     6     1   ar
    32    31    23   ar
    33    30    25   ar
    34    19    22    1
@<TRIPOS>MOLECULE
*****
 31 34 0 0 0
SMALL
GASTEIGER

@<TRIPOS>ATOM
      1 C          63.6818   86.3903   14.2239 C.ar    1  UNL1        0.1295
      2 C          63.6436   87.2966   13.0292 C.ar    1  UNL1        0.0216
      3 C          63.7401   88.7824   13.2115 C.ar    1  UNL1        0.0178
      4 C          63.8749   89.3619   14.5884 C.ar    1  UNL1        0.0789
      5 N          63.9131   88.4557   15.7831 N.ar    1  UNL1       -0.2451
      6 C          63.8166   86.9699   15.6009 C.ar    1  UNL1        0.1172
      7 S          63.5853   84.9046   14.0416 S.O2    1  UNL1        0.0319
      8 O          64.7492   84.7153   14.9687 O.2     1  UNL1       -0.1641
      9 O          62.4214   85.0940   13.1146 O.2     1  UNL1       -0.1641
     10 N          63.1262   81.2338   12.8672 N.ar    1  UNL1       -0.2481
     11 C          63.0856   82.7093   12.6007 C.ar    1  UNL1        0.1154
     12 C          63.4888   83.4189   13.8593 C.ar    1  UNL1        0.1498
     13 C          63.7785   82.3819   14.9036 C.ar    1  UNL1        0.1404
     14 N          63.5544   81.0314   14.2905 N.ar    1  UNL1       -0.1662
     15 C          62.7964   80.1508   11.8832 C.3     1  UNL1        0.1276
     16 C          62.6947   79.2913    9.4335 C.3     1  UNL1        0.0021
     17 C          63.0112   80.3793   10.4163 C.3     1  UNL1        0.0264
     18 C          63.9714   90.8477   14.7707 C.3     1  UNL1        0.1361
     19 N          64.3638   91.7210   13.6160 N.am    1  UNL1       -0.2931
     20 C          65.7703   92.2304   13.5050 C.2     1  UNL1        0.2809
     21 O          66.7842   91.8666   14.5487 O.2     1  UNL1       -0.2668
     22 H          63.6983   91.9598   12.9309 H       1  UNL1        0.1502
     23 C          66.1627   93.1037   12.3503 C.ar    1  UNL1        0.1984
     24 C          66.6705   92.6314   11.0203 C.ar    1  UNL1        0.0453
     25 C          66.9379   93.8384   10.1709 C.ar    1  UNL1        0.0409
     26 C          67.4490   93.9855    8.7683 C.ar    1  UNL1        0.0238
     27 C          67.6176   95.3510    8.1709 C.ar    1  UNL1        0.0991
     28 N          67.2752   96.5694    8.9760 N.ar    1  UNL1       -0.2391
     29 C          66.7640   96.4223   10.3785 C.ar    1  UNL1        0.1362
     30 C          66.5954   95.0568   10.9759 C.ar    1  UNL1        0.1646
     31 O          66.1163   94.6028   12.3229 O.2     1  UNL1       -0.4473
@<TRIPOS>BOND
     1    16    17    1
     2    17    15    1
     3    15    10    1
     4    10    11   ar
     5    11    12   ar
     6    12     7    1
     7     7     8    2
     8     7     9    2
     9     7     1    1
    10     1     2   ar
    11     2     3   ar
    12     3     4   ar
    13     4    18    1
    14    18    19    1
    15    19    20   am
    16    20    21    2
    17    20    23    1
    18    23    24   ar
    19    24    25   ar
    20    25    26   ar
    21    26    27   ar
    22    27    28   ar
    23    28    29   ar
    24    29    30   ar
    25    30    31   ar
    26     4     5   ar
    27     5     6   ar
    28    12    13   ar
    29    13    14   ar
    30    14    10   ar
    31     6     1   ar
    32    31    23   ar
    33    30    25   ar
    34    19    22    1
@<TRIPOS>MOLECULE
*****
 31 34 0 0 0
SMALL
GASTEIGER

@<TRIPOS>ATOM
      1 C          64.5295   90.9117   14.3689 C.ar    1  UNL1        0.1295
      2 C          64.1668   91.2206   15.7913 C.ar    1  UNL1        0.0216
      3 C          63.6105   90.1432   16.6743 C.ar    1  UNL1        0.0178
      4 C          63.4168   88.7570   16.1350 C.ar    1  UNL1        0.0789
      5 N          63.7795   88.4481   14.7127 N.ar    1  UNL1       -0.2451
      6 C          64.3358   89.5255   13.8296 C.ar    1  UNL1        0.1172
      7 S          65.0858   91.9891   13.4859 S.O2    1  UNL1        0.0319
      8 O          65.6055   92.7108   14.6938 O.2     1  UNL1       -0.1641
      9 O          64.5662   91.2674   12.2780 O.2     1  UNL1       -0.1641
     10 N          66.2844   94.3380   10.6378 N.ar    1  UNL1       -0.2481
     11 C          65.6232   93.0745   11.1030 C.ar    1  UNL1        0.1154
     12 C          65.6421   93.0665   12.6029 C.ar    1  UNL1        0.1498
     13 C          66.3151   94.3250   13.0647 C.ar    1  UNL1        0.1404
     14 N          66.7121   95.1108   11.8503 N.ar    1  UNL1       -0.1662
     15 C          66.4831   94.7554    9.2109 C.3     1  UNL1        0.1276
     16 C          68.4076   93.0674    8.7667 C.3     1  UNL1        0.0021
     17 C          67.7450   94.3842    8.4896 C.3     1  UNL1        0.0264
     18 C          62.8605   87.6796   17.0181 C.3     1  UNL1        0.1361
     19 N          62.5022   86.3440   16.4368 N.am    1  UNL1       -0.2931
     20 C          63.5472   85.5252   15.7386 C.2     1  UNL1        0.2809
     21 O          64.9504   86.0420   15.6216 O.2     1  UNL1       -0.2668
     22 H          61.5812   86.0048   16.5136 H       1  UNL1        0.1502
     23 C          63.1889   84.1896   15.1574 C.ar    1  UNL1        0.1984
     24 C          64.1104   83.2836   14.3959 C.ar    1  UNL1        0.0453
     25 C          63.3372   82.0596   14.0034 C.ar    1  UNL1        0.0409
     26 C          63.7266   80.8282   13.2406 C.ar    1  UNL1        0.0238
     27 C          62.7167   79.7463   12.9967 C.ar    1  UNL1        0.0991
     28 N          61.3173   79.8959   13.5157 N.ar    1  UNL1       -0.2391
     29 C          60.9278   81.1273   14.2785 C.ar    1  UNL1        0.1362
     30 C          61.9378   82.2091   14.5224 C.ar    1  UNL1        0.1646
     31 O          61.8462   83.5256   15.2355 O.2     1  UNL1       -0.4473
@<TRIPOS>BOND
     1    16    17    1
     2    17    15    1
     3    15    10    1
     4    10    11   ar
     5    11    12   ar
     6    12     7    1
     7     7     8    2
     8     7     9    2
     9     7     1    1
    10     1     2   ar
    11     2     3   ar
    12     3     4   ar
    13     4    18    1
    14    18    19    1
    15    19    20   am
    16    20    21    2
    17    20    23    1
    18    23    24   ar
    19    24    25   ar
    20    25    26   ar
    21    26    27   ar
    22    27    28   ar
    23    28    29   ar
    24    29    30   ar
    25    30    31   ar
    26     4     5   ar
    27     5     6   ar
    28    12    13   ar
    29    13    14   ar
    30    14    10   ar
    31     6     1   ar
    32    31    23   ar
    33    30    25   ar
    34    19    22    1
