@<TRIPOS>MOLECULE
*****
 38 41 0 0 0
SMALL
GASTEIGER

@<TRIPOS>ATOM
      1 C          64.0211   86.5969   15.6489 C.ar    1  UNL1        0.0611
      2 C          63.1645   86.2769   16.8380 C.ar    1  UNL1        0.1037
      3 N          62.6776   87.5708   17.4200 N.ar    1  UNL1       -0.2269
      4 C          63.2333   88.6904   16.5907 C.ar    1  UNL1        0.1407
      5 N          63.0904   90.1802   16.6908 N.ar    1  UNL1       -0.3374
      6 C          63.7779   91.0680   15.6963 C.ar    1  UNL1        0.0736
      7 C          64.6082   90.4661   14.6016 C.ar    1  UNL1        0.0216
      8 C          64.7510   88.9763   14.5015 C.ar    1  UNL1        0.0048
      9 C          64.0636   88.0884   15.4960 C.ar    1  UNL1        0.0386
     10 H          62.5455   90.5753   17.4092 H       1  UNL1        0.1674
     11 C          65.2957   91.3540   13.6071 C.ar    1  UNL1        0.0548
     12 C          64.5702   91.7994   12.3721 C.ar    1  UNL1        0.0095
     13 C          65.2577   92.6873   11.3775 C.ar    1  UNL1        0.0579
     14 C          66.6706   93.1297   11.6181 C.ar    1  UNL1        0.2275
     15 N          67.3961   92.6843   12.8532 N.ar    1  UNL1       -0.1767
     16 C          66.7086   91.7964   13.8476 C.ar    1  UNL1        0.2274
     17 O          67.3581   94.0176   10.6236 O.3     1  UNL1       -0.4561
     18 C          67.9370   93.4320    9.3698 C.3     1  UNL1        0.2542
     19 O          67.4340   91.3510   15.0827 O.3     1  UNL1       -0.4561
     20 C          68.0066   92.3686   16.0243 C.3     1  UNL1        0.2542
     21 C          64.7136   85.6002   14.7674 C.2     1  UNL1        0.2015
     22 O          66.1987   85.4152   14.8669 O.2     1  UNL1       -0.2864
     23 C          62.5508   84.6298   11.5844 C.ar    1  UNL1        0.0920
     24 C          62.3353   83.1649   11.8240 C.ar    1  UNL1        0.0204
     25 C          62.9126   82.5117   13.0447 C.ar    1  UNL1        0.0312
     26 C          63.7053   83.3234   14.0258 C.ar    1  UNL1        0.1454
     27 F          64.2825   82.6702   15.2465 F       1  UNL1       -0.2040
     28 C          63.9208   84.7883   13.7862 C.ar    1  UNL1        0.0951
     29 C          63.3436   85.4415   12.5655 C.ar    1  UNL1        0.1598
     30 F          63.5591   86.9066   12.3260 F       1  UNL1       -0.2026
     31 N          61.9736   85.2830   10.3637 N.pl3   1  UNL1       -0.2166
     32 H          61.7939   84.7476    9.5573 H       1  UNL1        0.1734
     33 S          61.6702   86.7520   10.3716 S.O2    1  UNL1        0.0540
     34 O          62.5626   86.9428    9.1812 O.2     1  UNL1       -0.1545
     35 O          60.7777   86.5612   11.5620 O.2     1  UNL1       -0.1545
     36 C          61.3667   88.2209   10.3797 C.3     1  UNL1        0.1724
     37 C          62.2484   90.6515   10.1245 C.3     1  UNL1        0.0019
     38 C          62.4826   89.2167   10.4940 C.3     1  UNL1        0.0273
@<TRIPOS>BOND
     1    37    38    1
     2    38    36    1
     3    36    33    1
     4    33    34    2
     5    33    35    2
     6    33    31    1
     7    31    23    1
     8    23    24   ar
     9    24    25   ar
    10    25    26   ar
    11    26    27    1
    12    26    28   ar
    13    28    21    1
    14    21    22    2
    15    21     1    1
    16     1     2   ar
    17     2     3   ar
    18     3     4   ar
    19     4     5   ar
    20     5     6   ar
    21     6     7   ar
    22     7    11    1
    23    11    12   ar
    24    12    13   ar
    25    13    14   ar
    26    14    17    1
    27    17    18    1
    28    14    15   ar
    29    15    16   ar
    30    16    19    1
    31    19    20    1
    32     7     8   ar
    33     8     9   ar
    34    28    29   ar
    35    29    30    1
    36    29    23   ar
    37     9     1   ar
    38     9     4    1
    39    16    11   ar
    40    31    32    1
    41     5    10    1
@<TRIPOS>MOLECULE
*****
 38 41 0 0 0
SMALL
GASTEIGER

@<TRIPOS>ATOM
      1 C          63.9362   86.5448   15.5098 C.ar    1  UNL1        0.0611
      2 C          63.1443   86.1855   16.7320 C.ar    1  UNL1        0.1037
      3 N          62.7314   87.4593   17.4079 N.ar    1  UNL1       -0.2269
      4 C          63.2682   88.6060   16.6034 C.ar    1  UNL1        0.1407
      5 N          63.1752   90.0917   16.7875 N.ar    1  UNL1       -0.3374
      6 C          63.8267   91.0122   15.7985 C.ar    1  UNL1        0.0736
      7 C          64.5713   90.4470   14.6254 C.ar    1  UNL1        0.0216
      8 C          64.6643   88.9613   14.4413 C.ar    1  UNL1        0.0048
      9 C          64.0128   88.0408   15.4303 C.ar    1  UNL1        0.0386
     10 H          62.6865   90.4627   17.5575 H       1  UNL1        0.1674
     11 C          65.2228   91.3676   13.6364 C.ar    1  UNL1        0.0548
     12 C          64.5204   91.7119   12.3566 C.ar    1  UNL1        0.0095
     13 C          65.1719   92.6325   11.3676 C.ar    1  UNL1        0.0579
     14 C          66.5260   93.2087   11.6585 C.ar    1  UNL1        0.2275
     15 N          67.2284   92.8643   12.9384 N.ar    1  UNL1       -0.1767
     16 C          66.5769   91.9438   13.9273 C.ar    1  UNL1        0.2274
     17 O          67.1775   94.1292   10.6696 O.3     1  UNL1       -0.4561
     18 C          67.8087   93.5713    9.4285 C.3     1  UNL1        0.2542
     19 O          67.2793   91.5994   15.2072 O.3     1  UNL1       -0.4561
     20 C          67.6548   92.6847   16.1722 C.3     1  UNL1        0.2542
     21 C          64.5447   85.5780   14.5377 C.2     1  UNL1        0.2015
     22 O          65.9567   85.1099   14.7297 O.2     1  UNL1       -0.2864
     23 C          62.4009   85.5496   11.1980 C.ar    1  UNL1        0.0920
     24 C          62.1337   84.0815   11.0451 C.ar    1  UNL1        0.0204
     25 C          62.6702   83.1123   12.0564 C.ar    1  UNL1        0.0312
     26 C          63.4738   83.6110   13.2206 C.ar    1  UNL1        0.1454
     27 F          64.0103   82.6418   14.2319 F       1  UNL1       -0.2040
     28 C          63.7410   85.0791   13.3734 C.ar    1  UNL1        0.0951
     29 C          63.2045   86.0484   12.3621 C.ar    1  UNL1        0.1598
     30 F          63.4717   87.5165   12.5151 F       1  UNL1       -0.2026
     31 N          61.8644   86.5189   10.1867 N.pl3   1  UNL1       -0.2166
     32 H          61.7103   87.4581   10.4384 H       1  UNL1        0.1734
     33 S          61.5627   86.0571    8.7918 S.O2    1  UNL1        0.0540
     34 O          60.0987   86.2729    9.0370 O.2     1  UNL1       -0.1545
     35 O          63.0267   85.8413    8.5465 O.2     1  UNL1       -0.1545
     36 C          61.2611   85.5954    7.3969 C.3     1  UNL1        0.1724
     37 C          61.9733   84.2922    5.2650 C.3     1  UNL1        0.0019
     38 C          62.1784   84.6253    6.7131 C.3     1  UNL1        0.0273
@<TRIPOS>BOND
     1    37    38    1
     2    38    36    1
     3    36    33    1
     4    33    34    2
     5    33    35    2
     6    33    31    1
     7    31    23    1
     8    23    24   ar
     9    24    25   ar
    10    25    26   ar
    11    26    27    1
    12    26    28   ar
    13    28    21    1
    14    21    22    2
    15    21     1    1
    16     1     2   ar
    17     2     3   ar
    18     3     4   ar
    19     4     5   ar
    20     5     6   ar
    21     6     7   ar
    22     7    11    1
    23    11    12   ar
    24    12    13   ar
    25    13    14   ar
    26    14    17    1
    27    17    18    1
    28    14    15   ar
    29    15    16   ar
    30    16    19    1
    31    19    20    1
    32     7     8   ar
    33     8     9   ar
    34    28    29   ar
    35    29    30    1
    36    29    23   ar
    37     9     1   ar
    38     9     4    1
    39    16    11   ar
    40    31    32    1
    41     5    10    1
@<TRIPOS>MOLECULE
*****
 38 41 0 0 0
SMALL
GASTEIGER

@<TRIPOS>ATOM
      1 C          61.5180   86.5888    9.1960 C.ar    1  UNL1        0.0611
      2 C          60.1285   86.3165    8.7007 C.ar    1  UNL1        0.1037
      3 N          59.3115   87.5574    8.9073 N.ar    1  UNL1       -0.2269
      4 C          60.1959   88.5965    9.5302 C.ar    1  UNL1        0.1407
      5 N          59.9357   90.0104    9.9579 N.ar    1  UNL1       -0.3374
      6 C          61.0392   90.8257   10.5641 C.ar    1  UNL1        0.0736
      7 C          62.4029   90.2270   10.7425 C.ar    1  UNL1        0.0216
      8 C          62.6632   88.8131   10.3148 C.ar    1  UNL1        0.0048
      9 C          61.5596   87.9978    9.7086 C.ar    1  UNL1        0.0386
     10 H          59.0406   90.4033    9.8408 H       1  UNL1        0.1674
     11 C          63.5065   91.0424   11.3488 C.ar    1  UNL1        0.0548
     12 C          64.3358   91.9436   10.4828 C.ar    1  UNL1        0.0095
     13 C          65.4394   92.7590   11.0890 C.ar    1  UNL1        0.0579
     14 C          65.7135   92.6731   12.5613 C.ar    1  UNL1        0.2275
     15 N          64.8841   91.7718   13.4273 N.ar    1  UNL1       -0.1767
     16 C          63.7806   90.9565   12.8210 C.ar    1  UNL1        0.2274
     17 O          66.8170   93.4884   13.1675 O.3     1  UNL1       -0.4561
     18 C          66.9843   93.5338   14.6574 C.3     1  UNL1        0.2542
     19 O          62.9512   90.0553   13.6870 O.3     1  UNL1       -0.4561
     20 C          63.3689   89.7816   15.1015 C.3     1  UNL1        0.2542
     21 C          62.6645   85.6217    9.1812 C.2     1  UNL1        0.2015
     22 O          63.5230   85.4948    7.9578 O.2     1  UNL1       -0.2864
     23 C          62.6154   84.2859   12.9180 C.ar    1  UNL1        0.0920
     24 C          63.5287   83.1011   12.8075 C.ar    1  UNL1        0.0204
     25 C          64.1539   82.7565   11.4883 C.ar    1  UNL1        0.0312
     26 C          63.8659   83.5966   10.2795 C.ar    1  UNL1        0.1454
     27 F          64.4911   83.2521    8.9603 F       1  UNL1       -0.2040
     28 C          62.9526   84.7814   10.3900 C.ar    1  UNL1        0.0951
     29 C          62.3274   85.1260   11.7092 C.ar    1  UNL1        0.1598
     30 F          61.4141   86.3108   11.8197 F       1  UNL1       -0.2026
     31 N          61.9902   84.6304   14.2372 N.pl3   1  UNL1       -0.2166
     32 H          61.0155   84.5571   14.3542 H       1  UNL1        0.1734
     33 S          62.8502   85.0868   15.3783 S.O2    1  UNL1        0.0540
     34 O          63.4926   86.1073   14.4861 O.2     1  UNL1       -0.1545
     35 O          62.2079   84.0664   16.2706 O.2     1  UNL1       -0.1545
     36 C          63.7101   85.5432   16.5195 C.3     1  UNL1        0.1724
     37 C          62.7699   87.6982   17.6249 C.3     1  UNL1        0.0019
     38 C          63.0890   86.2344   17.6970 C.3     1  UNL1        0.0273
@<TRIPOS>BOND
     1    37    38    1
     2    38    36    1
     3    36    33    1
     4    33    34    2
     5    33    35    2
     6    33    31    1
     7    31    23    1
     8    23    24   ar
     9    24    25   ar
    10    25    26   ar
    11    26    27    1
    12    26    28   ar
    13    28    21    1
    14    21    22    2
    15    21     1    1
    16     1     2   ar
    17     2     3   ar
    18     3     4   ar
    19     4     5   ar
    20     5     6   ar
    21     6     7   ar
    22     7    11    1
    23    11    12   ar
    24    12    13   ar
    25    13    14   ar
    26    14    17    1
    27    17    18    1
    28    14    15   ar
    29    15    16   ar
    30    16    19    1
    31    19    20    1
    32     7     8   ar
    33     8     9   ar
    34    28    29   ar
    35    29    30    1
    36    29    23   ar
    37     9     1   ar
    38     9     4    1
    39    16    11   ar
    40    31    32    1
    41     5    10    1
@<TRIPOS>MOLECULE
*****
 38 41 0 0 0
SMALL
GASTEIGER

@<TRIPOS>ATOM
      1 C          62.7880   89.9999   12.2778 C.ar    1  UNL1        0.0611
      2 C          62.4438   90.9808   11.1965 C.ar    1  UNL1        0.1037
      3 N          62.1017   90.2052    9.9590 N.ar    1  UNL1       -0.2269
      4 C          62.2345   88.7450   10.2755 C.ar    1  UNL1        0.1407
      5 N          62.0239   87.5146    9.4439 N.ar    1  UNL1       -0.3374
      6 C          62.2375   86.1572   10.0455 C.ar    1  UNL1        0.0736
      7 C          62.6617   86.0303   11.4787 C.ar    1  UNL1        0.0216
      8 C          62.8722   87.2608   12.3103 C.ar    1  UNL1        0.0048
      9 C          62.6586   88.6181   11.7087 C.ar    1  UNL1        0.0386
     10 H          61.7455   87.5978    8.5033 H       1  UNL1        0.1674
     11 C          62.8753   84.6729   12.0803 C.ar    1  UNL1        0.0548
     12 C          62.8288   83.4515   11.2109 C.ar    1  UNL1        0.0095
     13 C          63.0424   82.0941   11.8125 C.ar    1  UNL1        0.0579
     14 C          63.3025   81.9581   13.2835 C.ar    1  UNL1        0.2275
     15 N          63.3490   83.1797   14.1529 N.ar    1  UNL1       -0.1767
     16 C          63.1354   84.5370   13.5513 C.ar    1  UNL1        0.2274
     17 O          63.5161   80.6008   13.8851 O.3     1  UNL1       -0.4561
     18 C          62.5022   79.5167   13.6690 C.3     1  UNL1        0.2542
     19 O          63.1819   85.7585   14.4207 O.3     1  UNL1       -0.4561
     20 C          64.1191   85.8111   15.5907 C.3     1  UNL1        0.2542
     21 C          63.1909   90.3410   13.6819 C.2     1  UNL1        0.2015
     22 O          62.4062   89.7994   14.8399 O.2     1  UNL1       -0.2864
     23 C          66.3252   92.6825   13.0157 C.ar    1  UNL1        0.0920
     24 C          66.7537   92.9889   14.4202 C.ar    1  UNL1        0.0204
     25 C          65.9946   92.4126   15.5785 C.ar    1  UNL1        0.0312
     26 C          64.8071   91.5300   15.3325 C.ar    1  UNL1        0.1454
     27 F          64.0480   90.9538   16.4908 F       1  UNL1       -0.2040
     28 C          64.3785   91.2236   13.9280 C.ar    1  UNL1        0.0951
     29 C          65.1376   91.7999   12.7697 C.ar    1  UNL1        0.1598
     30 F          64.7090   91.4935   11.3652 F       1  UNL1       -0.2026
     31 N          67.0842   93.2588   11.8574 N.pl3   1  UNL1       -0.2166
     32 H          67.9719   92.9025   11.6244 H       1  UNL1        0.1734
     33 S          66.4908   94.3779   11.0541 S.O2    1  UNL1        0.0540
     34 O          66.2176   95.1396   12.3171 O.2     1  UNL1       -0.1545
     35 O          66.7639   93.6162    9.7911 O.2     1  UNL1       -0.1545
     36 C          65.8973   95.4970   10.2507 C.3     1  UNL1        0.1724
     37 C          67.1498   96.8558    8.4244 C.3     1  UNL1        0.0019
     38 C          66.7459   96.6696    9.8569 C.3     1  UNL1        0.0273
@<TRIPOS>BOND
     1    37    38    1
     2    38    36    1
     3    36    33    1
     4    33    34    2
     5    33    35    2
     6    33    31    1
     7    31    23    1
     8    23    24   ar
     9    24    25   ar
    10    25    26   ar
    11    26    27    1
    12    26    28   ar
    13    28    21    1
    14    21    22    2
    15    21     1    1
    16     1     2   ar
    17     2     3   ar
    18     3     4   ar
    19     4     5   ar
    20     5     6   ar
    21     6     7   ar
    22     7    11    1
    23    11    12   ar
    24    12    13   ar
    25    13    14   ar
    26    14    17    1
    27    17    18    1
    28    14    15   ar
    29    15    16   ar
    30    16    19    1
    31    19    20    1
    32     7     8   ar
    33     8     9   ar
    34    28    29   ar
    35    29    30    1
    36    29    23   ar
    37     9     1   ar
    38     9     4    1
    39    16    11   ar
    40    31    32    1
    41     5    10    1
@<TRIPOS>MOLECULE
*****
 38 41 0 0 0
SMALL
GASTEIGER

@<TRIPOS>ATOM
      1 C          61.7836   86.4850   10.5080 C.ar    1  UNL1        0.0611
      2 C          60.4829   86.1941    9.8200 C.ar    1  UNL1        0.1037
      3 N          59.7859   87.4996    9.5753 N.ar    1  UNL1       -0.2269
      4 C          60.6559   88.5973   10.1122 C.ar    1  UNL1        0.1407
      5 N          60.4833   90.0868   10.1505 N.ar    1  UNL1       -0.3374
      6 C          61.5454   90.9493   10.7654 C.ar    1  UNL1        0.0736
      7 C          62.7801   90.3222   11.3418 C.ar    1  UNL1        0.0216
      8 C          62.9527   88.8327   11.3035 C.ar    1  UNL1        0.0048
      9 C          61.8906   87.9703   10.6886 C.ar    1  UNL1        0.0386
     10 H          59.6729   90.4984    9.7722 H       1  UNL1        0.1674
     11 C          63.8422   91.1847   11.9567 C.ar    1  UNL1        0.0548
     12 C          64.7462   92.0004   11.0807 C.ar    1  UNL1        0.0095
     13 C          65.8083   92.8630   11.6955 C.ar    1  UNL1        0.0579
     14 C          65.9665   92.9097   13.1864 C.ar    1  UNL1        0.2275
     15 N          65.0624   92.0939   14.0625 N.ar    1  UNL1       -0.1767
     16 C          64.0004   91.2315   13.4476 C.ar    1  UNL1        0.2274
     17 O          67.0285   93.7722   13.8013 O.3     1  UNL1       -0.4561
     18 C          67.5556   93.4525   15.1688 C.3     1  UNL1        0.2542
     19 O          63.0964   90.4157   14.3236 O.3     1  UNL1       -0.4561
     20 C          63.6490   89.7252   15.5351 C.3     1  UNL1        0.2542
     21 C          62.7992   85.4690   10.9398 C.2     1  UNL1        0.2015
     22 O          63.6857   84.8152    9.9217 O.2     1  UNL1       -0.2864
     23 C          62.6030   83.3979   14.3195 C.ar    1  UNL1        0.0920
     24 C          63.1863   84.3823   15.2894 C.ar    1  UNL1        0.0204
     25 C          63.6405   85.7289   14.8095 C.ar    1  UNL1        0.0312
     26 C          63.5115   86.0912   13.3596 C.ar    1  UNL1        0.1454
     27 F          63.9658   87.4377   12.8797 F       1  UNL1       -0.2040
     28 C          62.9282   85.1068   12.3897 C.ar    1  UNL1        0.0951
     29 C          62.4740   83.7602   12.8697 C.ar    1  UNL1        0.1598
     30 F          61.8907   82.7758   11.8996 F       1  UNL1       -0.2026
     31 N          62.1488   82.0513   14.7994 N.pl3   1  UNL1       -0.2166
     32 H          61.6654   81.9704   15.6533 H       1  UNL1        0.1734
     33 S          62.4309   80.8281   13.9784 S.O2    1  UNL1        0.0540
     34 O          60.9578   80.5859   13.8329 O.2     1  UNL1       -0.1545
     35 O          63.9041   81.0703   14.1238 O.2     1  UNL1       -0.1545
     36 C          62.7132   79.6049   13.1574 C.3     1  UNL1        0.1724
     37 C          63.2248   80.2487   10.6928 C.3     1  UNL1        0.0019
     38 C          62.3443   79.5758   11.7037 C.3     1  UNL1        0.0273
@<TRIPOS>BOND
     1    37    38    1
     2    38    36    1
     3    36    33    1
     4    33    34    2
     5    33    35    2
     6    33    31    1
     7    31    23    1
     8    23    24   ar
     9    24    25   ar
    10    25    26   ar
    11    26    27    1
    12    26    28   ar
    13    28    21    1
    14    21    22    2
    15    21     1    1
    16     1     2   ar
    17     2     3   ar
    18     3     4   ar
    19     4     5   ar
    20     5     6   ar
    21     6     7   ar
    22     7    11    1
    23    11    12   ar
    24    12    13   ar
    25    13    14   ar
    26    14    17    1
    27    17    18    1
    28    14    15   ar
    29    15    16   ar
    30    16    19    1
    31    19    20    1
    32     7     8   ar
    33     8     9   ar
    34    28    29   ar
    35    29    30    1
    36    29    23   ar
    37     9     1   ar
    38     9     4    1
    39    16    11   ar
    40    31    32    1
    41     5    10    1
@<TRIPOS>MOLECULE
*****
 38 41 0 0 0
SMALL
GASTEIGER

@<TRIPOS>ATOM
      1 C          64.2116   88.9985   14.1957 C.ar    1  UNL1        0.0611
      2 C          64.8774   88.0619   15.1598 C.ar    1  UNL1        0.1037
      3 N          64.5759   86.6582   14.7254 N.ar    1  UNL1       -0.2269
      4 C          63.7237   86.7273   13.4929 C.ar    1  UNL1        0.1407
      5 N          63.1237   85.6600   12.6264 N.ar    1  UNL1       -0.3374
      6 C          62.2985   86.0392   11.4326 C.ar    1  UNL1        0.0736
      7 C          62.0734   87.4856   11.1052 C.ar    1  UNL1        0.0216
      8 C          62.6734   88.5529   11.9717 C.ar    1  UNL1        0.0048
      9 C          63.4986   88.1737   13.1655 C.ar    1  UNL1        0.0386
     10 H          63.2714   84.7107   12.8413 H       1  UNL1        0.1674
     11 C          61.2482   87.8647    9.9113 C.ar    1  UNL1        0.0548
     12 C          61.1260   86.9193    8.7532 C.ar    1  UNL1        0.0095
     13 C          60.3008   87.2984    7.5593 C.ar    1  UNL1        0.0579
     14 C          59.5978   88.6230    7.5235 C.ar    1  UNL1        0.2275
     15 N          59.7200   89.5684    8.6817 N.ar    1  UNL1       -0.1767
     16 C          60.5452   89.1893    9.8755 C.ar    1  UNL1        0.2274
     17 O          58.7727   89.0021    6.3297 O.3     1  UNL1       -0.4561
     18 C          58.9145   90.3664    5.7227 C.3     1  UNL1        0.2542
     19 O          60.6674   90.1347   11.0337 O.3     1  UNL1       -0.4561
     20 C          59.4415   90.7835   11.6048 C.3     1  UNL1        0.2542
     21 C          64.2517   90.4969   14.2520 C.2     1  UNL1        0.2015
     22 O          63.2190   91.2458   15.0408 O.2     1  UNL1       -0.2864
     23 C          66.0828   92.6791   11.4887 C.ar    1  UNL1        0.0920
     24 C          67.4708   92.7456   12.0538 C.ar    1  UNL1        0.0204
     25 C          67.7857   92.0624   13.3515 C.ar    1  UNL1        0.0312
     26 C          66.7127   91.3129   14.0843 C.ar    1  UNL1        0.1454
     27 F          67.0276   90.6298   15.3820 F       1  UNL1       -0.2040
     28 C          65.3248   91.2465   13.5192 C.ar    1  UNL1        0.0951
     29 C          65.0099   91.9296   12.2215 C.ar    1  UNL1        0.1598
     30 F          63.6219   91.8632   11.6564 F       1  UNL1       -0.2026
     31 N          65.7679   93.3623   10.1910 N.pl3   1  UNL1       -0.2166
     32 H          65.0837   92.9872    9.5906 H       1  UNL1        0.1734
     33 S          66.4955   94.6168    9.8079 S.O2    1  UNL1        0.0540
     34 O          67.3587   93.8291    8.8675 O.2     1  UNL1       -0.1545
     35 O          65.6324   95.4045   10.7484 O.2     1  UNL1       -0.1545
     36 C          67.2230   95.8714    9.4249 C.3     1  UNL1        0.1724
     37 C          65.7030   96.6693    7.4748 C.3     1  UNL1        0.0019
     38 C          67.0712   96.4342    8.0428 C.3     1  UNL1        0.0273
@<TRIPOS>BOND
     1    37    38    1
     2    38    36    1
     3    36    33    1
     4    33    34    2
     5    33    35    2
     6    33    31    1
     7    31    23    1
     8    23    24   ar
     9    24    25   ar
    10    25    26   ar
    11    26    27    1
    12    26    28   ar
    13    28    21    1
    14    21    22    2
    15    21     1    1
    16     1     2   ar
    17     2     3   ar
    18     3     4   ar
    19     4     5   ar
    20     5     6   ar
    21     6     7   ar
    22     7    11    1
    23    11    12   ar
    24    12    13   ar
    25    13    14   ar
    26    14    17    1
    27    17    18    1
    28    14    15   ar
    29    15    16   ar
    30    16    19    1
    31    19    20    1
    32     7     8   ar
    33     8     9   ar
    34    28    29   ar
    35    29    30    1
    36    29    23   ar
    37     9     1   ar
    38     9     4    1
    39    16    11   ar
    40    31    32    1
    41     5    10    1
@<TRIPOS>MOLECULE
*****
 38 41 0 0 0
SMALL
GASTEIGER

@<TRIPOS>ATOM
      1 C          61.5105   87.7775   10.5375 C.ar    1  UNL1        0.0611
      2 C          60.6757   87.9624    9.3051 C.ar    1  UNL1        0.1037
      3 N          60.9136   89.3502    8.7881 N.ar    1  UNL1       -0.2269
      4 C          61.8954   90.0231    9.7010 C.ar    1  UNL1        0.1407
      5 N          62.5011   91.3952    9.6874 N.ar    1  UNL1       -0.3374
      6 C          63.4757   91.7954   10.7550 C.ar    1  UNL1        0.0736
      7 C          63.8446   90.8234   11.8363 C.ar    1  UNL1        0.0216
      8 C          63.2389   89.4512   11.8498 C.ar    1  UNL1        0.0048
      9 C          62.2643   89.0511   10.7822 C.ar    1  UNL1        0.0386
     10 H          62.2589   92.0332    8.9777 H       1  UNL1        0.1674
     11 C          64.8193   91.2236   12.9039 C.ar    1  UNL1        0.0548
     12 C          66.1283   91.8517   12.5272 C.ar    1  UNL1        0.0095
     13 C          67.1030   92.2519   13.5949 C.ar    1  UNL1        0.0579
     14 C          66.7687   92.0239   15.0393 C.ar    1  UNL1        0.2275
     15 N          65.4596   91.3958   15.4160 N.ar    1  UNL1       -0.1767
     16 C          64.4850   90.9956   14.3483 C.ar    1  UNL1        0.2274
     17 O          67.7433   92.4241   16.1069 O.3     1  UNL1       -0.4561
     18 C          68.7682   93.4832   15.8280 C.3     1  UNL1        0.2542
     19 O          63.1759   90.3675   14.7250 O.3     1  UNL1       -0.4561
     20 C          63.0008   89.7560   16.0835 C.3     1  UNL1        0.2542
     21 C          61.5794   86.5369   11.3778 C.2     1  UNL1        0.2015
     22 O          60.7398   86.4215   12.6153 O.2     1  UNL1       -0.2864
     23 C          63.9786   83.3857   11.6324 C.ar    1  UNL1        0.0920
     24 C          64.3054   83.1606   10.1858 C.ar    1  UNL1        0.0204
     25 C          63.7235   84.0609    9.1366 C.ar    1  UNL1        0.0312
     26 C          62.8149   85.1863    9.5338 C.ar    1  UNL1        0.1454
     27 F          62.2330   86.0866    8.4846 F       1  UNL1       -0.2040
     28 C          62.4881   85.4114   10.9804 C.ar    1  UNL1        0.0951
     29 C          63.0700   84.5111   12.0296 C.ar    1  UNL1        0.1598
     30 F          62.7432   84.7363   13.4762 F       1  UNL1       -0.2026
     31 N          64.5605   82.4854   12.6816 N.pl3   1  UNL1       -0.2166
     32 H          65.5306   82.4876   12.8492 H       1  UNL1        0.1734
     33 S          63.6642   81.5819   13.4755 S.O2    1  UNL1        0.0540
     34 O          63.2665   80.8702   12.2165 O.2     1  UNL1       -0.1545
     35 O          64.0620   82.2936   14.7346 O.2     1  UNL1       -0.1545
     36 C          62.7680   80.6784   14.2695 C.3     1  UNL1        0.1724
     37 C          60.1759   80.5785   14.1239 C.3     1  UNL1        0.0019
     38 C          61.5224   80.1214   13.6465 C.3     1  UNL1        0.0273
@<TRIPOS>BOND
     1    37    38    1
     2    38    36    1
     3    36    33    1
     4    33    34    2
     5    33    35    2
     6    33    31    1
     7    31    23    1
     8    23    24   ar
     9    24    25   ar
    10    25    26   ar
    11    26    27    1
    12    26    28   ar
    13    28    21    1
    14    21    22    2
    15    21     1    1
    16     1     2   ar
    17     2     3   ar
    18     3     4   ar
    19     4     5   ar
    20     5     6   ar
    21     6     7   ar
    22     7    11    1
    23    11    12   ar
    24    12    13   ar
    25    13    14   ar
    26    14    17    1
    27    17    18    1
    28    14    15   ar
    29    15    16   ar
    30    16    19    1
    31    19    20    1
    32     7     8   ar
    33     8     9   ar
    34    28    29   ar
    35    29    30    1
    36    29    23   ar
    37     9     1   ar
    38     9     4    1
    39    16    11   ar
    40    31    32    1
    41     5    10    1
@<TRIPOS>MOLECULE
*****
 38 41 0 0 0
SMALL
GASTEIGER

@<TRIPOS>ATOM
      1 C          63.8376   86.3569   15.9946 C.ar    1  UNL1        0.0611
      2 C          62.9899   86.0995   17.2051 C.ar    1  UNL1        0.1037
      3 N          62.5111   87.4224   17.7254 N.ar    1  UNL1       -0.2269
      4 C          63.0628   88.4974   16.8365 C.ar    1  UNL1        0.1407
      5 N          62.9246   89.9907   16.8629 N.ar    1  UNL1       -0.3374
      6 C          63.6062   90.8256   15.8197 C.ar    1  UNL1        0.0736
      7 C          64.4260   90.1670   14.7500 C.ar    1  UNL1        0.0216
      8 C          64.5643   88.6737   14.7236 C.ar    1  UNL1        0.0048
      9 C          63.8827   87.8389   15.7668 C.ar    1  UNL1        0.0386
     10 H          62.3865   90.4229   17.5650 H       1  UNL1        0.1674
     11 C          65.1077   91.0020   13.7067 C.ar    1  UNL1        0.0548
     12 C          66.5096   91.4856   13.9314 C.ar    1  UNL1        0.0095
     13 C          67.1913   92.3206   12.8881 C.ar    1  UNL1        0.0579
     14 C          66.4709   92.6718   11.6202 C.ar    1  UNL1        0.2275
     15 N          65.0688   92.1881   11.3955 N.ar    1  UNL1       -0.1767
     16 C          64.3873   91.3532   12.4388 C.ar    1  UNL1        0.2274
     17 O          67.1524   93.5066   10.5769 O.3     1  UNL1       -0.4561
     18 C          68.0630   92.8597    9.5758 C.3     1  UNL1        0.2542
     19 O          62.9852   90.8695   12.2141 O.3     1  UNL1       -0.4561
     20 C          62.7442   89.5811   11.4847 C.3     1  UNL1        0.2542
     21 C          64.5204   85.3153   15.1587 C.2     1  UNL1        0.2015
     22 O          65.9996   85.3938   14.9232 O.2     1  UNL1       -0.2864
     23 C          63.1535   82.6751   12.5297 C.ar    1  UNL1        0.0920
     24 C          62.1308   81.9545   13.3573 C.ar    1  UNL1        0.0204
     25 C          61.9046   82.3541   14.7853 C.ar    1  UNL1        0.0312
     26 C          62.7011   83.4744   15.3858 C.ar    1  UNL1        0.1454
     27 F          62.4750   83.8740   16.8137 F       1  UNL1       -0.2040
     28 C          63.7238   84.1950   14.5582 C.ar    1  UNL1        0.0951
     29 C          63.9500   83.7953   13.1302 C.ar    1  UNL1        0.1598
     30 F          64.9727   84.5160   12.3027 F       1  UNL1       -0.2026
     31 N          63.3796   82.2755   11.1018 N.pl3   1  UNL1       -0.2166
     32 H          63.4415   81.3228   10.8611 H       1  UNL1        0.1734
     33 S          63.5114   83.3272   10.0405 S.O2    1  UNL1        0.0540
     34 O          64.8085   82.7179    9.5976 O.2     1  UNL1       -0.1545
     35 O          62.2142   83.9366   10.4833 O.2     1  UNL1       -0.1545
     36 C          63.6431   84.3791    8.9792 C.3     1  UNL1        0.1724
     37 C          61.6559   85.7103    7.9645 C.3     1  UNL1        0.0019
     38 C          62.7392   85.5761    8.9934 C.3     1  UNL1        0.0273
@<TRIPOS>BOND
     1    37    38    1
     2    38    36    1
     3    36    33    1
     4    33    34    2
     5    33    35    2
     6    33    31    1
     7    31    23    1
     8    23    24   ar
     9    24    25   ar
    10    25    26   ar
    11    26    27    1
    12    26    28   ar
    13    28    21    1
    14    21    22    2
    15    21     1    1
    16     1     2   ar
    17     2     3   ar
    18     3     4   ar
    19     4     5   ar
    20     5     6   ar
    21     6     7   ar
    22     7    11    1
    23    11    12   ar
    24    12    13   ar
    25    13    14   ar
    26    14    17    1
    27    17    18    1
    28    14    15   ar
    29    15    16   ar
    30    16    19    1
    31    19    20    1
    32     7     8   ar
    33     8     9   ar
    34    28    29   ar
    35    29    30    1
    36    29    23   ar
    37     9     1   ar
    38     9     4    1
    39    16    11   ar
    40    31    32    1
    41     5    10    1
