@<TRIPOS>MOLECULE
*****
 45 49 0 0 0
SMALL
GASTEIGER

@<TRIPOS>ATOM
      1 C          64.2098   89.7197   13.7217 C.2     1  UNL1        0.3851
      2 N          65.4080   90.4579   14.2406 N.am    1  UNL1        0.0007
      3 N          63.0017   90.4802   13.2612 N.pl3   1  UNL1       -0.2438
      4 H          62.7583   91.3285   13.6975 H       1  UNL1        0.2647
      5 C          60.4215   85.8395    7.4794 C.3     1  UNL1        0.0725
      6 C          60.6875   86.8900    8.5166 C.ar    1  UNL1        0.1233
      7 C          61.8258   86.8962    9.4935 C.ar    1  UNL1        0.0361
      8 C          61.7037   88.1288   10.3396 C.ar    1  UNL1        0.0400
      9 C          62.5409   88.6607   11.4648 C.ar    1  UNL1        0.0365
     10 C          62.1645   89.9482   12.1360 C.ar    1  UNL1        0.1168
     11 C          60.9508   90.7037   11.6820 C.ar    1  UNL1        0.0365
     12 C          60.1135   90.1718   10.5569 C.ar    1  UNL1        0.0404
     13 C          60.4900   88.8843    9.8856 C.ar    1  UNL1        0.1450
     14 O          59.8620   88.1187    8.7590 O.2     1  UNL1       -0.4577
     15 C          65.3981   91.9568   14.2991 C.2     1  UNL1        0.3433
     16 O          65.0942   92.6549   15.5916 O.2     1  UNL1       -0.2483
     17 C          65.6919   92.7575   13.0653 C.ar    1  UNL1        0.0919
     18 C          65.2290   92.2675   11.7253 C.ar    1  UNL1        0.0094
     19 C          65.5229   93.0682   10.4914 C.ar    1  UNL1        0.0240
     20 C          66.2797   94.3590   10.5975 C.ar    1  UNL1        0.1342
     21 N          66.7426   94.8490   11.9375 N.ar    1  UNL1       -0.2391
     22 C          66.4487   94.0482   13.1714 C.ar    1  UNL1        0.1051
     23 C          66.5736   95.1596    9.3636 C.2     1  UNL1        0.2605
     24 N          65.5506   96.1184    8.8304 N.am    1  UNL1       -0.3241
     25 O          67.8904   95.0015    8.6629 O.2     1  UNL1       -0.2687
     26 H          64.6864   96.2222    9.2903 H       1  UNL1        0.1453
     27 H          65.7435   96.6440    8.0205 H       1  UNL1        0.1453
     28 N          64.2197   88.2208   13.6632 N.pl3   1  UNL1       -0.2585
     29 H          64.4969   87.7622   12.8373 H       1  UNL1        0.2589
     30 C          63.8074   87.4207   14.8631 C.3     1  UNL1        0.2142
     31 C          63.2966   88.2133   16.0297 C.3     1  UNL1        0.0490
     32 C          62.8127   87.7147   17.3591 C.3     1  UNL1        0.0057
     33 C          62.7199   86.3004   17.8502 C.3     1  UNL1        0.0216
     34 C          63.0883   85.0353   17.1332 C.3     1  UNL1        0.0940
     35 N          63.6403   84.8722   15.7480 N.am    1  UNL1       -0.2686
     36 C          63.9604   85.9338   14.7377 C.2     1  UNL1        0.2622
     37 O          64.5054   85.4436   13.4291 O.2     1  UNL1       -0.2712
     38 C          63.9077   83.4609   15.3161 C.3     1  UNL1        0.1794
     39 C          62.9316   82.7517   14.4248 C.2     1  UNL1        0.2459
     40 O          61.5989   82.3229   14.9632 O.2     1  UNL1       -0.2730
     41 N          63.2883   82.4715   12.9950 N.am    1  UNL1       -0.2781
     42 C          64.5763   82.8382   12.3194 C.3     1  UNL1        0.0935
     43 C          64.5036   82.3686   10.8967 C.3     1  UNL1        0.0233
     44 C          63.1706   81.7116   10.6930 C.3     1  UNL1        0.0233
     45 C          62.4195   81.7752   11.9898 C.3     1  UNL1        0.0935
@<TRIPOS>BOND
     1     5     6    1
     2     6     7   ar
     3     7     8   ar
     4     8     9   ar
     5     9    10   ar
     6    10     3    1
     7     3     1    1
     8     1     2    2
     9     2    15    1
    10    15    16    2
    11    15    17    1
    12    17    18   ar
    13    18    19   ar
    14    19    20   ar
    15    20    23    1
    16    23    24   am
    17    23    25    2
    18    20    21   ar
    19    21    22   ar
    20     1    28    1
    21    30    28    1
    22    30    31    1
    23    31    32    1
    24    32    33    1
    25    33    34    1
    26    34    35    1
    27    35    38    1
    28    38    39    1
    29    39    40    2
    30    39    41   am
    31    41    42    1
    32    42    43    1
    33    43    44    1
    34    44    45    1
    35    35    36   am
    36    36    37    2
    37    10    11   ar
    38    11    12   ar
    39    12    13   ar
    40    13    14   ar
    41    14     6   ar
    42    13     8   ar
    43    22    17   ar
    44    36    30    1
    45    45    41    1
    46     3     4    1
    47    24    26    1
    48    24    27    1
    49    28    29    1
@<TRIPOS>MOLECULE
*****
 45 49 0 0 0
SMALL
GASTEIGER

@<TRIPOS>ATOM
      1 C          62.7993   89.9956   13.1937 C.2     1  UNL1        0.3851
      2 N          61.3288   89.7047   13.1393 N.am    1  UNL1        0.0007
      3 N          63.5394   90.3564   11.9399 N.pl3   1  UNL1       -0.2438
      4 H          63.4369   89.8040   11.1315 H       1  UNL1        0.2647
      5 C          67.3556   96.7244    9.3888 C.3     1  UNL1        0.0725
      6 C          66.7614   95.5605   10.1251 C.ar    1  UNL1        0.1233
      7 C          65.7944   94.5616    9.5618 C.ar    1  UNL1        0.0361
      8 C          65.4651   93.5749   10.6426 C.ar    1  UNL1        0.0400
      9 C          64.5688   92.3724   10.6646 C.ar    1  UNL1        0.0365
     10 C          64.4358   91.5590   11.9178 C.ar    1  UNL1        0.1168
     11 C          65.1992   91.9480   13.1490 C.ar    1  UNL1        0.0365
     12 C          66.0956   93.1505   13.1270 C.ar    1  UNL1        0.0404
     13 C          66.2285   93.9639   11.8737 C.ar    1  UNL1        0.1450
     14 O          67.0296   95.1911   11.5539 O.2     1  UNL1       -0.4577
     15 C          60.5984   89.7746   11.8309 C.2     1  UNL1        0.3433
     16 O          59.6634   90.9143   11.5540 O.2     1  UNL1       -0.2483
     17 C          60.8029   88.7047   10.7997 C.ar    1  UNL1        0.0919
     18 C          61.3972   87.3855   11.1952 C.ar    1  UNL1        0.0094
     19 C          61.6018   86.3157   10.1640 C.ar    1  UNL1        0.0240
     20 C          61.2120   86.5650    8.7371 C.ar    1  UNL1        0.1342
     21 N          60.6177   87.8842    8.3415 N.ar    1  UNL1       -0.2391
     22 C          60.4132   88.9541    9.3729 C.ar    1  UNL1        0.1051
     23 C          61.4166   85.4952    7.7058 C.2     1  UNL1        0.2605
     24 N          62.7746   84.8875    7.5147 N.am    1  UNL1       -0.3241
     25 O          60.2631   85.0330    6.8656 O.2     1  UNL1       -0.2687
     26 H          63.5317   85.1908    8.0661 H       1  UNL1        0.1453
     27 H          62.9088   84.1853    6.8378 H       1  UNL1        0.1453
     28 N          63.5298   89.9257   14.5020 N.pl3   1  UNL1       -0.2585
     29 H          64.0588   90.6959   14.8122 H       1  UNL1        0.2589
     30 C          63.4542   88.6823   15.3377 C.3     1  UNL1        0.2142
     31 C          63.0032   88.8772   16.7550 C.3     1  UNL1        0.0490
     32 C          62.8262   87.8463   17.8302 C.3     1  UNL1        0.0057
     33 C          63.0565   86.3660   17.7536 C.3     1  UNL1        0.0216
     34 C          63.5207   85.5510   16.5830 C.3     1  UNL1        0.0940
     35 N          63.8692   86.0151   15.1998 N.am    1  UNL1       -0.2686
     36 C          63.8396   87.4086   14.6456 C.2     1  UNL1        0.2622
     37 O          64.2497   87.5466   13.2093 O.2     1  UNL1       -0.2712
     38 C          64.3049   84.9438   14.2445 C.3     1  UNL1        0.1794
     39 C          63.4139   83.7664   13.9809 C.2     1  UNL1        0.2459
     40 O          62.4516   83.3033   15.0342 O.2     1  UNL1       -0.2730
     41 N          63.4851   83.0520   12.6639 N.am    1  UNL1       -0.2781
     42 C          64.3926   83.3983   11.5208 C.3     1  UNL1        0.0935
     43 C          64.1296   82.4262   10.4092 C.3     1  UNL1        0.0233
     44 C          63.0596   81.4790   10.8652 C.3     1  UNL1        0.0233
     45 C          62.6613   81.8658   12.2586 C.3     1  UNL1        0.0935
@<TRIPOS>BOND
     1     5     6    1
     2     6     7   ar
     3     7     8   ar
     4     8     9   ar
     5     9    10   ar
     6    10     3    1
     7     3     1    1
     8     1     2    2
     9     2    15    1
    10    15    16    2
    11    15    17    1
    12    17    18   ar
    13    18    19   ar
    14    19    20   ar
    15    20    23    1
    16    23    24   am
    17    23    25    2
    18    20    21   ar
    19    21    22   ar
    20     1    28    1
    21    30    28    1
    22    30    31    1
    23    31    32    1
    24    32    33    1
    25    33    34    1
    26    34    35    1
    27    35    38    1
    28    38    39    1
    29    39    40    2
    30    39    41   am
    31    41    42    1
    32    42    43    1
    33    43    44    1
    34    44    45    1
    35    35    36   am
    36    36    37    2
    37    10    11   ar
    38    11    12   ar
    39    12    13   ar
    40    13    14   ar
    41    14     6   ar
    42    13     8   ar
    43    22    17   ar
    44    36    30    1
    45    45    41    1
    46     3     4    1
    47    24    26    1
    48    24    27    1
    49    28    29    1
@<TRIPOS>MOLECULE
*****
 45 49 0 0 0
SMALL
GASTEIGER

@<TRIPOS>ATOM
      1 C          63.4289   88.8191   12.7508 C.2     1  UNL1        0.3851
      2 N          62.5972   87.7291   12.1426 N.am    1  UNL1        0.0007
      3 N          63.3359   90.2187   12.2193 N.pl3   1  UNL1       -0.2438
      4 H          62.5851   90.4750   11.6363 H       1  UNL1        0.2647
      5 C          68.8467   94.0865   16.2559 C.3     1  UNL1        0.0725
      6 C          67.8455   93.5433   15.2800 C.ar    1  UNL1        0.1233
      7 C          66.9596   92.3524   15.4965 C.ar    1  UNL1        0.0361
      8 C          66.1210   92.1687   14.2665 C.ar    1  UNL1        0.0400
      9 C          65.0701   91.1596   13.9097 C.ar    1  UNL1        0.0365
     10 C          64.3868   91.2279   12.5762 C.ar    1  UNL1        0.1168
     11 C          64.7544   92.3053   11.5994 C.ar    1  UNL1        0.0365
     12 C          65.8053   93.3144   11.9562 C.ar    1  UNL1        0.0404
     13 C          66.4885   93.2461   13.2897 C.ar    1  UNL1        0.1450
     14 O          67.5544   94.0956   13.9161 O.2     1  UNL1       -0.4577
     15 C          61.6724   88.0386   11.0028 C.2     1  UNL1        0.3433
     16 O          60.7618   89.2282   11.0776 O.2     1  UNL1       -0.2483
     17 C          61.6583   87.1586    9.7882 C.ar    1  UNL1        0.0919
     18 C          62.8072   86.2323    9.5197 C.ar    1  UNL1        0.0094
     19 C          62.7931   85.3523    8.3051 C.ar    1  UNL1        0.0240
     20 C          61.6300   85.3984    7.3589 C.ar    1  UNL1        0.1342
     21 N          60.4811   86.3247    7.6274 N.ar    1  UNL1       -0.2391
     22 C          60.4953   87.2047    8.8421 C.ar    1  UNL1        0.1051
     23 C          61.6159   84.5184    6.1443 C.2     1  UNL1        0.2605
     24 N          62.7924   84.5054    5.2139 N.am    1  UNL1       -0.3241
     25 O          60.4254   83.6514    5.8602 O.2     1  UNL1       -0.2687
     26 H          63.5738   85.0744    5.4003 H       1  UNL1        0.1453
     27 H          62.7831   83.9277    4.4167 H       1  UNL1        0.1453
     28 N          64.3537   88.5096   13.8906 N.pl3   1  UNL1       -0.2585
     29 H          65.2668   88.8775   13.8975 H       1  UNL1        0.2589
     30 C          63.8871   87.6396   15.0199 C.3     1  UNL1        0.2142
     31 C          63.2929   88.3600   16.1938 C.3     1  UNL1        0.0490
     32 C          62.7412   87.7829   17.4638 C.3     1  UNL1        0.0057
     33 C          62.6475   86.3429   17.8734 C.3     1  UNL1        0.0216
     34 C          63.0824   85.1244   17.1144 C.3     1  UNL1        0.0940
     35 N          63.7183   85.0450   15.7581 N.am    1  UNL1       -0.2686
     36 C          64.0764   86.1643   14.8260 C.2     1  UNL1        0.2622
     37 O          64.7073   85.7540   13.5285 O.2     1  UNL1       -0.2712
     38 C          64.0384   83.6634   15.2694 C.3     1  UNL1        0.1794
     39 C          63.0601   82.9299   14.4006 C.2     1  UNL1        0.2459
     40 O          61.7572   82.4560   14.9729 O.2     1  UNL1       -0.2730
     41 N          63.3849   82.6702   12.9594 N.am    1  UNL1       -0.2781
     42 C          64.6414   83.0816   12.2507 C.3     1  UNL1        0.0935
     43 C          64.5432   82.6192   10.8272 C.3     1  UNL1        0.0233
     44 C          63.2261   81.9221   10.6559 C.3     1  UNL1        0.0233
     45 C          62.5103   81.9536   11.9737 C.3     1  UNL1        0.0935
@<TRIPOS>BOND
     1     5     6    1
     2     6     7   ar
     3     7     8   ar
     4     8     9   ar
     5     9    10   ar
     6    10     3    1
     7     3     1    1
     8     1     2    2
     9     2    15    1
    10    15    16    2
    11    15    17    1
    12    17    18   ar
    13    18    19   ar
    14    19    20   ar
    15    20    23    1
    16    23    24   am
    17    23    25    2
    18    20    21   ar
    19    21    22   ar
    20     1    28    1
    21    30    28    1
    22    30    31    1
    23    31    32    1
    24    32    33    1
    25    33    34    1
    26    34    35    1
    27    35    38    1
    28    38    39    1
    29    39    40    2
    30    39    41   am
    31    41    42    1
    32    42    43    1
    33    43    44    1
    34    44    45    1
    35    35    36   am
    36    36    37    2
    37    10    11   ar
    38    11    12   ar
    39    12    13   ar
    40    13    14   ar
    41    14     6   ar
    42    13     8   ar
    43    22    17   ar
    44    36    30    1
    45    45    41    1
    46     3     4    1
    47    24    26    1
    48    24    27    1
    49    28    29    1
@<TRIPOS>MOLECULE
*****
 45 49 0 0 0
SMALL
GASTEIGER

@<TRIPOS>ATOM
      1 C          63.7827   89.3439   13.3884 C.2     1  UNL1        0.3851
      2 N          64.5090   88.5105   14.4022 N.am    1  UNL1        0.0007
      3 N          62.3018   89.1856   13.2095 N.pl3   1  UNL1       -0.2438
      4 H          61.6900   89.4113   13.9471 H       1  UNL1        0.2647
      5 C          61.4217   84.9264    6.6744 C.3     1  UNL1        0.0725
      6 C          61.3579   85.8823    7.8286 C.ar    1  UNL1        0.1233
      7 C          62.2975   85.9174    8.9973 C.ar    1  UNL1        0.0361
      8 C          61.8637   87.0277    9.9078 C.ar    1  UNL1        0.0400
      9 C          62.4123   87.5299   11.2103 C.ar    1  UNL1        0.0365
     10 C          61.7532   88.6833   11.9069 C.ar    1  UNL1        0.1168
     11 C          60.5454   89.3344   11.3009 C.ar    1  UNL1        0.0365
     12 C          59.9967   88.8322    9.9984 C.ar    1  UNL1        0.0404
     13 C          60.6559   87.6788    9.3018 C.ar    1  UNL1        0.1450
     14 O          60.3433   86.9709    8.0168 O.2     1  UNL1       -0.4577
     15 C          63.7545   87.5187   15.2372 C.2     1  UNL1        0.3433
     16 O          63.1084   87.9549   16.5188 O.2     1  UNL1       -0.2483
     17 C          63.6460   86.0909   14.7907 C.ar    1  UNL1        0.0919
     18 C          63.9489   85.7249   13.3679 C.ar    1  UNL1        0.0094
     19 C          63.8405   84.2971   12.9213 C.ar    1  UNL1        0.0240
     20 C          63.4291   83.2351   13.8976 C.ar    1  UNL1        0.1342
     21 N          63.1262   83.6010   15.3204 N.ar    1  UNL1       -0.2391
     22 C          63.2347   85.0289   15.7669 C.ar    1  UNL1        0.1051
     23 C          63.3206   81.8072   13.4510 C.2     1  UNL1        0.2605
     24 N          62.8835   81.4902   12.0516 N.am    1  UNL1       -0.3241
     25 O          63.6494   80.6964   14.4039 O.2     1  UNL1       -0.2687
     26 H          62.6677   82.2193   11.4262 H       1  UNL1        0.1453
     27 H          62.8123   80.5531   11.7585 H       1  UNL1        0.1453
     28 N          64.5372   90.3356   12.5534 N.pl3   1  UNL1       -0.2585
     29 H          64.5185   90.2676   11.5714 H       1  UNL1        0.2589
     30 C          65.3202   91.4309   13.2146 C.3     1  UNL1        0.2142
     31 C          65.8150   91.1328   14.5990 C.3     1  UNL1        0.0490
     32 C          66.6167   92.0097   15.5147 C.3     1  UNL1        0.0057
     33 C          67.1216   93.4012   15.2721 C.3     1  UNL1        0.0216
     34 C          66.9495   94.2596   14.0541 C.3     1  UNL1        0.0940
     35 N          66.2300   93.9383   12.7777 N.am    1  UNL1       -0.2686
     36 C          65.5049   92.6794   12.4041 C.2     1  UNL1        0.2622
     37 O          64.8822   92.6676   11.0395 O.2     1  UNL1       -0.2712
     38 C          66.2365   95.0188   11.7373 C.3     1  UNL1        0.1794
     39 C          66.8899   94.7769   10.4089 C.2     1  UNL1        0.2459
     40 O          68.0645   93.8496   10.3086 O.2     1  UNL1       -0.2730
     41 N          66.3685   95.4625    9.1808 N.am    1  UNL1       -0.2781
     42 C          65.2082   96.4117    9.1262 C.3     1  UNL1        0.0935
     43 C          65.0386   96.8550    7.7034 C.3     1  UNL1        0.0233
     44 C          66.0940   96.1800    6.8785 C.3     1  UNL1        0.0233
     45 C          66.9159   95.3193    7.7916 C.3     1  UNL1        0.0935
@<TRIPOS>BOND
     1     5     6    1
     2     6     7   ar
     3     7     8   ar
     4     8     9   ar
     5     9    10   ar
     6    10     3    1
     7     3     1    1
     8     1     2    2
     9     2    15    1
    10    15    16    2
    11    15    17    1
    12    17    18   ar
    13    18    19   ar
    14    19    20   ar
    15    20    23    1
    16    23    24   am
    17    23    25    2
    18    20    21   ar
    19    21    22   ar
    20     1    28    1
    21    30    28    1
    22    30    31    1
    23    31    32    1
    24    32    33    1
    25    33    34    1
    26    34    35    1
    27    35    38    1
    28    38    39    1
    29    39    40    2
    30    39    41   am
    31    41    42    1
    32    42    43    1
    33    43    44    1
    34    44    45    1
    35    35    36   am
    36    36    37    2
    37    10    11   ar
    38    11    12   ar
    39    12    13   ar
    40    13    14   ar
    41    14     6   ar
    42    13     8   ar
    43    22    17   ar
    44    36    30    1
    45    45    41    1
    46     3     4    1
    47    24    26    1
    48    24    27    1
    49    28    29    1
@<TRIPOS>MOLECULE
*****
 45 49 0 0 0
SMALL
GASTEIGER

@<TRIPOS>ATOM
      1 C          63.5785   87.3432   13.4251 C.2     1  UNL1        0.3851
      2 N          64.7040   87.1346   14.3944 N.am    1  UNL1        0.0007
      3 N          63.0116   86.1766   12.6716 N.pl3   1  UNL1       -0.2438
      4 H          63.0570   85.2722   13.0578 H       1  UNL1        0.2647
      5 C          58.9683   89.4829    6.8113 C.3     1  UNL1        0.0725
      6 C          59.7823   88.6360    7.7441 C.ar    1  UNL1        0.1233
      7 C          60.1490   88.9828    9.1566 C.ar    1  UNL1        0.0361
      8 C          60.9659   87.8548    9.7138 C.ar    1  UNL1        0.0400
      9 C          61.6017   87.6434   11.0558 C.ar    1  UNL1        0.0365
     10 C          62.3757   86.3880   11.3295 C.ar    1  UNL1        0.1168
     11 C          62.5138   85.3441   10.2613 C.ar    1  UNL1        0.0365
     12 C          61.8779   85.5554    8.9194 C.ar    1  UNL1        0.0404
     13 C          61.1039   86.8108    8.6456 C.ar    1  UNL1        0.1450
     14 O          60.3725   87.2936    7.4283 O.2     1  UNL1       -0.4577
     15 C          65.2627   85.7593   14.6103 C.2     1  UNL1        0.3433
     16 O          66.6823   85.5893   15.0640 O.2     1  UNL1       -0.2483
     17 C          64.4019   84.5542   14.3725 C.ar    1  UNL1        0.0919
     18 C          64.6137   83.7105   13.1505 C.ar    1  UNL1        0.0094
     19 C          63.7529   82.5054   12.9127 C.ar    1  UNL1        0.0240
     20 C          62.6801   82.1439   13.8969 C.ar    1  UNL1        0.1342
     21 N          62.4683   82.9876   15.1189 N.ar    1  UNL1       -0.2391
     22 C          63.3292   84.1928   15.3567 C.ar    1  UNL1        0.1051
     23 C          61.8193   80.9388   13.6591 C.2     1  UNL1        0.2605
     24 N          60.4294   80.8873   14.2208 N.am    1  UNL1       -0.3241
     25 O          62.3484   79.7852   12.8596 O.2     1  UNL1       -0.2687
     26 H          60.0822   81.6444   14.7456 H       1  UNL1        0.1453
     27 H          59.8644   80.0963   14.0648 H       1  UNL1        0.1453
     28 N          63.0197   88.7185   13.2092 N.pl3   1  UNL1       -0.2585
     29 H          62.0863   88.8303   12.9167 H       1  UNL1        0.2589
     30 C          63.8831   89.9233   13.4389 C.3     1  UNL1        0.2142
     31 C          64.3861   90.1059   14.8403 C.3     1  UNL1        0.0490
     32 C          65.2596   91.1965   15.3857 C.3     1  UNL1        0.0057
     33 C          65.8458   92.3740   14.6646 C.3     1  UNL1        0.0216
     34 C          65.7033   92.7516   13.2199 C.3     1  UNL1        0.0940
     35 N          64.9394   92.0450   12.1395 N.am    1  UNL1       -0.2686
     36 C          64.1293   90.7863   12.2370 C.2     1  UNL1        0.2622
     37 O          63.4796   90.3303   10.9642 O.2     1  UNL1       -0.2712
     38 C          64.9926   92.6812   10.7822 C.3     1  UNL1        0.1794
     39 C          66.3107   93.1000   10.2014 C.2     1  UNL1        0.2459
     40 O          67.4265   92.1052   10.0793 O.2     1  UNL1       -0.2730
     41 N          66.5128   94.5138    9.7427 N.am    1  UNL1       -0.2781
     42 C          65.4948   95.6139    9.8014 C.3     1  UNL1        0.0935
     43 C          66.1213   96.8556    9.2397 C.3     1  UNL1        0.0233
     44 C          67.5266   96.5230    8.8339 C.3     1  UNL1        0.0233
     45 C          67.7685   95.0757    9.1448 C.3     1  UNL1        0.0935
@<TRIPOS>BOND
     1     5     6    1
     2     6     7   ar
     3     7     8   ar
     4     8     9   ar
     5     9    10   ar
     6    10     3    1
     7     3     1    1
     8     1     2    2
     9     2    15    1
    10    15    16    2
    11    15    17    1
    12    17    18   ar
    13    18    19   ar
    14    19    20   ar
    15    20    23    1
    16    23    24   am
    17    23    25    2
    18    20    21   ar
    19    21    22   ar
    20     1    28    1
    21    30    28    1
    22    30    31    1
    23    31    32    1
    24    32    33    1
    25    33    34    1
    26    34    35    1
    27    35    38    1
    28    38    39    1
    29    39    40    2
    30    39    41   am
    31    41    42    1
    32    42    43    1
    33    43    44    1
    34    44    45    1
    35    35    36   am
    36    36    37    2
    37    10    11   ar
    38    11    12   ar
    39    12    13   ar
    40    13    14   ar
    41    14     6   ar
    42    13     8   ar
    43    22    17   ar
    44    36    30    1
    45    45    41    1
    46     3     4    1
    47    24    26    1
    48    24    27    1
    49    28    29    1
@<TRIPOS>MOLECULE
*****
 45 49 0 0 0
SMALL
GASTEIGER

@<TRIPOS>ATOM
      1 C          63.4957   87.1169   13.9374 C.2     1  UNL1        0.3851
      2 N          64.8777   86.8597   14.4607 N.am    1  UNL1        0.0007
      3 N          62.6801   85.9855   13.3853 N.pl3   1  UNL1       -0.2438
      4 H          62.4362   85.2267   13.9633 H       1  UNL1        0.2647
      5 C          62.4371   84.5900    5.6641 C.3     1  UNL1        0.0725
      6 C          62.2477   85.0144    7.0903 C.ar    1  UNL1        0.1233
      7 C          63.1202   84.6292    8.2481 C.ar    1  UNL1        0.0361
      8 C          62.5642   85.2752    9.4825 C.ar    1  UNL1        0.0400
      9 C          63.0082   85.2505   10.9151 C.ar    1  UNL1        0.0365
     10 C          62.2362   86.0102   11.9527 C.ar    1  UNL1        0.1168
     11 C          61.0201   86.7946   11.5578 C.ar    1  UNL1        0.0365
     12 C          60.5761   86.8193   10.1253 C.ar    1  UNL1        0.0404
     13 C          61.3482   86.0596    9.0876 C.ar    1  UNL1        0.1450
     14 O          61.1526   85.8984    7.6092 O.2     1  UNL1       -0.4577
     15 C          65.4441   85.4710   14.4321 C.2     1  UNL1        0.3433
     16 O          66.9239   85.2618   14.5610 O.2     1  UNL1       -0.2483
     17 C          64.5308   84.2916   14.2747 C.ar    1  UNL1        0.0919
     18 C          64.6448   83.4108   13.0658 C.ar    1  UNL1        0.0094
     19 C          63.7315   82.2314   12.9084 C.ar    1  UNL1        0.0240
     20 C          62.7042   81.9327   13.9598 C.ar    1  UNL1        0.1342
     21 N          62.5902   82.8134   15.1686 N.ar    1  UNL1       -0.2391
     22 C          63.5036   83.9929   15.3261 C.ar    1  UNL1        0.1051
     23 C          61.7909   80.7533   13.8023 C.2     1  UNL1        0.2605
     24 N          62.2674   79.5266   13.0825 N.am    1  UNL1       -0.3241
     25 O          60.4012   80.8006   14.3647 O.2     1  UNL1       -0.2687
     26 H          63.1795   79.4955   12.7134 H       1  UNL1        0.1453
     27 H          61.6679   78.7525   12.9791 H       1  UNL1        0.1453
     28 N          62.9293   88.5056   13.9660 N.pl3   1  UNL1       -0.2585
     29 H          62.3699   88.7936   14.7232 H       1  UNL1        0.2589
     30 C          63.2151   89.4555   12.8408 C.3     1  UNL1        0.2142
     31 C          62.3735   89.2802   11.6114 C.3     1  UNL1        0.0490
     32 C          62.4137   90.0611   10.3314 C.3     1  UNL1        0.0057
     33 C          63.3053   91.2103    9.9645 C.3     1  UNL1        0.0216
     34 C          64.3769   91.8623   10.7871 C.3     1  UNL1        0.0940
     35 N          64.8216   91.5261   12.1797 N.am    1  UNL1       -0.2686
     36 C          64.3045   90.4550   13.0936 C.2     1  UNL1        0.2622
     37 O          64.9642   90.3725   14.4383 O.2     1  UNL1       -0.2712
     38 C          65.9299   92.3731   12.7312 C.3     1  UNL1        0.1794
     39 C          66.3379   93.6298   12.0211 C.2     1  UNL1        0.2459
     40 O          65.9493   94.9666   12.5794 O.2     1  UNL1       -0.2730
     41 N          67.1345   93.5495   10.7527 N.am    1  UNL1       -0.2781
     42 C          67.5937   92.2910   10.0780 C.3     1  UNL1        0.0935
     43 C          68.3548   92.6774    8.8446 C.3     1  UNL1        0.0233
     44 C          68.3660   94.1748    8.7569 C.3     1  UNL1        0.0233
     45 C          67.6118   94.7138    9.9361 C.3     1  UNL1        0.0935
@<TRIPOS>BOND
     1     5     6    1
     2     6     7   ar
     3     7     8   ar
     4     8     9   ar
     5     9    10   ar
     6    10     3    1
     7     3     1    1
     8     1     2    2
     9     2    15    1
    10    15    16    2
    11    15    17    1
    12    17    18   ar
    13    18    19   ar
    14    19    20   ar
    15    20    23    1
    16    23    24   am
    17    23    25    2
    18    20    21   ar
    19    21    22   ar
    20     1    28    1
    21    30    28    1
    22    30    31    1
    23    31    32    1
    24    32    33    1
    25    33    34    1
    26    34    35    1
    27    35    38    1
    28    38    39    1
    29    39    40    2
    30    39    41   am
    31    41    42    1
    32    42    43    1
    33    43    44    1
    34    44    45    1
    35    35    36   am
    36    36    37    2
    37    10    11   ar
    38    11    12   ar
    39    12    13   ar
    40    13    14   ar
    41    14     6   ar
    42    13     8   ar
    43    22    17   ar
    44    36    30    1
    45    45    41    1
    46     3     4    1
    47    24    26    1
    48    24    27    1
    49    28    29    1
@<TRIPOS>MOLECULE
*****
 45 49 0 0 0
SMALL
GASTEIGER

@<TRIPOS>ATOM
      1 C          63.3712   87.1642   13.8488 C.2     1  UNL1        0.3851
      2 N          64.7323   86.9608   14.4455 N.am    1  UNL1        0.0007
      3 N          62.6130   85.9947   13.2943 N.pl3   1  UNL1       -0.2438
      4 H          62.4036   85.2253   13.8717 H       1  UNL1        0.2647
      5 C          62.3943   84.4810    5.5947 C.3     1  UNL1        0.0725
      6 C          62.2005   84.9273    7.0136 C.ar    1  UNL1        0.1233
      7 C          63.0690   84.5596    8.1800 C.ar    1  UNL1        0.0361
      8 C          62.5094   85.2247    9.4025 C.ar    1  UNL1        0.0400
      9 C          62.9487   85.2218   10.8367 C.ar    1  UNL1        0.0365
     10 C          62.1736   85.9976   11.8600 C.ar    1  UNL1        0.1168
     11 C          60.9593   86.7764   11.4492 C.ar    1  UNL1        0.0365
     12 C          60.5199   86.7793   10.0150 C.ar    1  UNL1        0.0404
     13 C          61.2950   86.0034    8.9917 C.ar    1  UNL1        0.1450
     14 O          61.1041   85.8196    7.5153 O.2     1  UNL1       -0.4577
     15 C          65.3351   85.5879   14.4878 C.2     1  UNL1        0.3433
     16 O          66.8037   85.4212   14.7440 O.2     1  UNL1       -0.2483
     17 C          64.4695   84.3817   14.2738 C.ar    1  UNL1        0.0919
     18 C          64.6339   83.5507   13.0360 C.ar    1  UNL1        0.0094
     19 C          63.7683   82.3445   12.8220 C.ar    1  UNL1        0.0240
     20 C          62.7382   81.9694   13.8459 C.ar    1  UNL1        0.1342
     21 N          62.5738   82.8005   15.0838 N.ar    1  UNL1       -0.2391
     22 C          63.4395   84.0067   15.2977 C.ar    1  UNL1        0.1051
     23 C          61.8726   80.7632   13.6320 C.2     1  UNL1        0.2605
     24 N          60.4802   80.7310   14.1890 N.am    1  UNL1       -0.3241
     25 O          62.3993   79.5893   12.8610 O.2     1  UNL1       -0.2687
     26 H          60.1345   81.5014   14.6950 H       1  UNL1        0.1453
     27 H          59.9121   79.9393   14.0486 H       1  UNL1        0.1453
     28 N          62.7683   88.5371   13.8065 N.pl3   1  UNL1       -0.2585
     29 H          62.1384   88.8199   14.5082 H       1  UNL1        0.2589
     30 C          63.1253   89.4791   12.6951 C.3     1  UNL1        0.2142
     31 C          62.5609   89.1393   11.3475 C.3     1  UNL1        0.0490
     32 C          62.7313   89.8727   10.0501 C.3     1  UNL1        0.0057
     33 C          63.5081   91.1272    9.7800 C.3     1  UNL1        0.0216
     34 C          64.3065   91.9580   10.7405 C.3     1  UNL1        0.0940
     35 N          64.5251   91.7394   12.2083 N.am    1  UNL1       -0.2686
     36 C          63.9994   90.6362   13.0782 C.2     1  UNL1        0.2622
     37 O          64.4010   90.6985   14.5221 O.2     1  UNL1       -0.2712
     38 C          65.3828   92.7590   12.8974 C.3     1  UNL1        0.1794
     39 C          66.8661   92.5541   12.9868 C.2     1  UNL1        0.2459
     40 O          67.6724   92.3560   11.7376 O.2     1  UNL1       -0.2730
     41 N          67.5429   92.5473   14.3254 N.am    1  UNL1       -0.2781
     42 C          66.8713   92.7315   15.6539 C.3     1  UNL1        0.0935
     43 C          67.9236   92.6531   16.7200 C.3     1  UNL1        0.0233
     44 C          69.2455   92.4205   16.0504 C.3     1  UNL1        0.0233
     45 C          69.0102   92.3550   14.5704 C.3     1  UNL1        0.0935
@<TRIPOS>BOND
     1     5     6    1
     2     6     7   ar
     3     7     8   ar
     4     8     9   ar
     5     9    10   ar
     6    10     3    1
     7     3     1    1
     8     1     2    2
     9     2    15    1
    10    15    16    2
    11    15    17    1
    12    17    18   ar
    13    18    19   ar
    14    19    20   ar
    15    20    23    1
    16    23    24   am
    17    23    25    2
    18    20    21   ar
    19    21    22   ar
    20     1    28    1
    21    30    28    1
    22    30    31    1
    23    31    32    1
    24    32    33    1
    25    33    34    1
    26    34    35    1
    27    35    38    1
    28    38    39    1
    29    39    40    2
    30    39    41   am
    31    41    42    1
    32    42    43    1
    33    43    44    1
    34    44    45    1
    35    35    36   am
    36    36    37    2
    37    10    11   ar
    38    11    12   ar
    39    12    13   ar
    40    13    14   ar
    41    14     6   ar
    42    13     8   ar
    43    22    17   ar
    44    36    30    1
    45    45    41    1
    46     3     4    1
    47    24    26    1
    48    24    27    1
    49    28    29    1
@<TRIPOS>MOLECULE
*****
 45 49 0 0 0
SMALL
GASTEIGER

@<TRIPOS>ATOM
      1 C          63.7052   87.9345   13.9587 C.2     1  UNL1        0.3851
      2 N          64.5156   87.3215   15.0621 N.am    1  UNL1        0.0007
      3 N          63.5403   87.2081   12.6567 N.pl3   1  UNL1       -0.2438
      4 H          63.9822   86.3393   12.5183 H       1  UNL1        0.2647
      5 C          58.4219   87.8595    6.7405 C.3     1  UNL1        0.0725
      6 C          59.4328   88.0191    7.8371 C.ar    1  UNL1        0.1233
      7 C          59.9668   86.9227    8.7105 C.ar    1  UNL1        0.0361
      8 C          60.9512   87.5291    9.6661 C.ar    1  UNL1        0.0400
      9 C          61.7894   86.9317   10.7572 C.ar    1  UNL1        0.0365
     10 C          62.7020   87.8055   11.5655 C.ar    1  UNL1        0.1168
     11 C          62.7764   89.2768   11.2829 C.ar    1  UNL1        0.0365
     12 C          61.9382   89.8742   10.1918 C.ar    1  UNL1        0.0404
     13 C          61.0256   89.0003    9.3834 C.ar    1  UNL1        0.1450
     14 O          60.0872   89.3032    8.2531 O.2     1  UNL1       -0.4577
     15 C          65.1610   85.9820   14.8635 C.2     1  UNL1        0.3433
     16 O          66.6538   85.8514   14.9310 O.2     1  UNL1       -0.2483
     17 C          64.3137   84.7732   14.5974 C.ar    1  UNL1        0.0919
     18 C          64.6484   83.8591   13.4563 C.ar    1  UNL1        0.0094
     19 C          63.8011   82.6503   13.1902 C.ar    1  UNL1        0.0240
     20 C          62.6189   82.3556   14.0653 C.ar    1  UNL1        0.1342
     21 N          62.2842   83.2698   15.2065 N.ar    1  UNL1       -0.2391
     22 C          63.1316   84.4786   15.4725 C.ar    1  UNL1        0.1051
     23 C          61.7716   81.1469   13.7992 C.2     1  UNL1        0.2605
     24 N          62.3179   80.0128   12.9835 N.am    1  UNL1       -0.3241
     25 O          60.3780   81.0722   14.3489 O.2     1  UNL1       -0.2687
     26 H          63.2326   80.0618   12.6228 H       1  UNL1        0.1453
     27 H          61.7618   79.2194   12.8089 H       1  UNL1        0.1453
     28 N          63.0598   89.2739   14.1572 N.pl3   1  UNL1       -0.2585
     29 H          62.1271   89.4173   13.8768 H       1  UNL1        0.2589
     30 C          63.8355   90.3948   14.7832 C.3     1  UNL1        0.2142
     31 C          63.7293   90.5060   16.2753 C.3     1  UNL1        0.0490
     32 C          64.3762   91.5062   17.1870 C.3     1  UNL1        0.0057
     33 C          65.2892   92.6422   16.8317 C.3     1  UNL1        0.0216
     34 C          65.7806   93.0586   15.4771 C.3     1  UNL1        0.0940
     35 N          65.4805   92.4417   14.1431 N.am    1  UNL1       -0.2686
     36 C          64.6149   91.2563   13.8343 C.2     1  UNL1        0.2622
     37 O          64.5155   90.8830   12.3849 O.2     1  UNL1       -0.2712
     38 C          66.1323   93.0971   12.9617 C.3     1  UNL1        0.1794
     39 C          67.2776   92.4222   12.2669 C.2     1  UNL1        0.2459
     40 O          68.1167   91.4208   13.0038 O.2     1  UNL1       -0.2730
     41 N          67.5837   92.7486   10.8352 N.am    1  UNL1       -0.2781
     42 C          66.8367   93.7235    9.9740 C.3     1  UNL1        0.0935
     43 C          67.4820   93.7349    8.6200 C.3     1  UNL1        0.0233
     44 C          68.6277   92.7671    8.6443 C.3     1  UNL1        0.0233
     45 C          68.6906   92.1576   10.0134 C.3     1  UNL1        0.0935
@<TRIPOS>BOND
     1     5     6    1
     2     6     7   ar
     3     7     8   ar
     4     8     9   ar
     5     9    10   ar
     6    10     3    1
     7     3     1    1
     8     1     2    2
     9     2    15    1
    10    15    16    2
    11    15    17    1
    12    17    18   ar
    13    18    19   ar
    14    19    20   ar
    15    20    23    1
    16    23    24   am
    17    23    25    2
    18    20    21   ar
    19    21    22   ar
    20     1    28    1
    21    30    28    1
    22    30    31    1
    23    31    32    1
    24    32    33    1
    25    33    34    1
    26    34    35    1
    27    35    38    1
    28    38    39    1
    29    39    40    2
    30    39    41   am
    31    41    42    1
    32    42    43    1
    33    43    44    1
    34    44    45    1
    35    35    36   am
    36    36    37    2
    37    10    11   ar
    38    11    12   ar
    39    12    13   ar
    40    13    14   ar
    41    14     6   ar
    42    13     8   ar
    43    22    17   ar
    44    36    30    1
    45    45    41    1
    46     3     4    1
    47    24    26    1
    48    24    27    1
    49    28    29    1
@<TRIPOS>MOLECULE
*****
 45 49 0 0 0
SMALL
GASTEIGER

@<TRIPOS>ATOM
      1 C          60.2845   88.8129    8.2132 C.2     1  UNL1        0.3851
      2 N          60.7804   90.0461    8.9084 N.am    1  UNL1        0.0007
      3 N          59.9292   87.5936    9.0114 N.pl3   1  UNL1       -0.2438
      4 H          58.9997   87.4490    9.3018 H       1  UNL1        0.2647
      5 C          64.4777   82.7775   13.2232 C.3     1  UNL1        0.0725
      6 C          63.7650   83.6052   12.1951 C.ar    1  UNL1        0.1233
      7 C          62.6282   84.5484   12.4560 C.ar    1  UNL1        0.0361
      8 C          62.2245   85.1611   11.1477 C.ar    1  UNL1        0.0400
      9 C          61.1636   86.1601   10.7921 C.ar    1  UNL1        0.0365
     10 C          60.9901   86.5946    9.3670 C.ar    1  UNL1        0.1168
     11 C          61.8774   86.0300    8.2974 C.ar    1  UNL1        0.0365
     12 C          62.9383   85.0310    8.6530 C.ar    1  UNL1        0.0404
     13 C          63.1119   84.5966   10.0781 C.ar    1  UNL1        0.1450
     14 O          64.0639   83.6350   10.7255 O.2     1  UNL1       -0.4577
     15 C          60.9209   90.0601   10.4018 C.2     1  UNL1        0.3433
     16 O          59.8271   89.5018   11.2632 O.2     1  UNL1       -0.2483
     17 C          62.1551   90.6322   11.0336 C.ar    1  UNL1        0.0919
     18 C          63.1320   91.4095   10.2021 C.ar    1  UNL1        0.0094
     19 C          64.3662   91.9817   10.8340 C.ar    1  UNL1        0.0240
     20 C          64.6236   91.7766   12.2975 C.ar    1  UNL1        0.1342
     21 N          63.6467   90.9993   13.1290 N.ar    1  UNL1       -0.2391
     22 C          62.4124   90.4271   12.4971 C.ar    1  UNL1        0.1051
     23 C          65.8578   92.3487   12.9293 C.2     1  UNL1        0.2605
     24 N          67.1300   92.4419   12.1403 N.am    1  UNL1       -0.3241
     25 O          65.8197   92.8277   14.3503 O.2     1  UNL1       -0.2687
     26 H          67.1550   92.1276   11.2076 H       1  UNL1        0.1453
     27 H          67.9401   92.8175   12.5550 H       1  UNL1        0.1453
     28 N          60.1440   88.7990    6.7198 N.pl3   1  UNL1       -0.2585
     29 H          60.6323   88.1316    6.1857 H       1  UNL1        0.2589
     30 C          59.2594   89.8019    6.0404 C.3     1  UNL1        0.2142
     31 C          57.7856   89.6176    6.2503 C.3     1  UNL1        0.0490
     32 C          56.6540   90.4424    5.7125 C.3     1  UNL1        0.0057
     33 C          56.7167   91.6552    4.8320 C.3     1  UNL1        0.0216
     34 C          57.9265   92.3428    4.2719 C.3     1  UNL1        0.0940
     35 N          59.3724   91.9873    4.4539 N.am    1  UNL1       -0.2686
     36 C          59.9656   90.8565    5.2409 C.2     1  UNL1        0.2622
     37 O          61.4630   90.7687    5.2266 O.2     1  UNL1       -0.2712
     38 C          60.3550   92.8807    3.7566 C.3     1  UNL1        0.1794
     39 C          60.3580   92.9678    2.2591 C.2     1  UNL1        0.2459
     40 O          59.0709   92.8478    1.4983 O.2     1  UNL1       -0.2730
     41 N          61.6482   93.1748    1.5225 N.am    1  UNL1       -0.2781
     42 C          63.0064   93.3118    2.1444 C.3     1  UNL1        0.0935
     43 C          64.0042   93.5029    1.0409 C.3     1  UNL1        0.0233
     44 C          63.2629   93.4839   -0.2630 C.3     1  UNL1        0.0233
     45 C          61.8068   93.2811    0.0347 C.3     1  UNL1        0.0935
@<TRIPOS>BOND
     1     5     6    1
     2     6     7   ar
     3     7     8   ar
     4     8     9   ar
     5     9    10   ar
     6    10     3    1
     7     3     1    1
     8     1     2    2
     9     2    15    1
    10    15    16    2
    11    15    17    1
    12    17    18   ar
    13    18    19   ar
    14    19    20   ar
    15    20    23    1
    16    23    24   am
    17    23    25    2
    18    20    21   ar
    19    21    22   ar
    20     1    28    1
    21    30    28    1
    22    30    31    1
    23    31    32    1
    24    32    33    1
    25    33    34    1
    26    34    35    1
    27    35    38    1
    28    38    39    1
    29    39    40    2
    30    39    41   am
    31    41    42    1
    32    42    43    1
    33    43    44    1
    34    44    45    1
    35    35    36   am
    36    36    37    2
    37    10    11   ar
    38    11    12   ar
    39    12    13   ar
    40    13    14   ar
    41    14     6   ar
    42    13     8   ar
    43    22    17   ar
    44    36    30    1
    45    45    41    1
    46     3     4    1
    47    24    26    1
    48    24    27    1
    49    28    29    1
