@<TRIPOS>MOLECULE
*****
 38 40 0 0 0
SMALL
GASTEIGER

@<TRIPOS>ATOM
      1 C          64.8842   91.3975   12.8893 C.ar    1  UNL1       -0.0185
      2 C          64.2381   91.6793   11.5652 C.ar    1  UNL1       -0.0041
      3 C          64.6409   92.8902   10.7767 C.ar    1  UNL1        0.0057
      4 C          65.6897   93.8192   11.3123 C.ar    1  UNL1        0.0696
      5 C          66.3358   93.5373   12.6364 C.ar    1  UNL1        0.0095
      6 C          65.9331   92.3265   13.4248 C.ar    1  UNL1        0.0677
      7 C          63.2733   86.5541   16.0430 C.2     1  UNL1        0.2491
      8 O          63.0593   86.6605   17.5239 O.2     1  UNL1       -0.2699
      9 N          63.6760   87.7649   15.2546 N.am    1  UNL1       -0.2761
     10 C          63.8900   87.6586   13.7738 C.3     1  UNL1        0.0940
     11 C          64.2928   88.8695   12.9853 C.3     1  UNL1        0.0259
     12 C          64.4815   90.1867   13.6777 C.3     1  UNL1        0.0257
     13 C          64.2675   90.2930   15.1585 C.3     1  UNL1        0.0259
     14 C          63.8648   89.0822   15.9470 C.3     1  UNL1        0.0940
     15 C          63.3920   83.7321   13.2552 C.ar    1  UNL1        0.1059
     16 C          62.7071   82.6026   13.9659 C.ar    1  UNL1        0.0183
     17 C          62.2109   82.7903   15.3689 C.ar    1  UNL1        0.0015
     18 C          62.3996   84.1074   16.0613 C.ar    1  UNL1        0.0046
     19 C          63.0846   85.2369   15.3507 C.ar    1  UNL1        0.0549
     20 C          63.5808   85.0492   13.9476 C.ar    1  UNL1        0.0229
     21 C          64.3844   83.3568   10.4491 C.3     1  UNL1        0.1816
     22 S          63.8882   83.5444   11.8521 S.O2    1  UNL1        0.0105
     23 O          64.7293   82.3876   12.3043 O.2     1  UNL1       -0.1686
     24 O          63.0472   84.7012   11.4000 O.2     1  UNL1       -0.1686
     25 C          66.0924   95.0300   10.5239 C.2     1  UNL1        0.3078
     26 O          66.4313   96.3079   11.2326 O.2     1  UNL1       -0.2516
     27 N          66.1563   94.9630    9.0268 N.am    1  UNL1       -0.1708
     28 H          65.9339   94.1243    8.5616 H       1  UNL1        0.2545
     29 C          66.5590   96.1739    8.2383 C.2     1  UNL1        0.3751
     30 N          67.8641   96.8555    8.5249 N.pl3   1  UNL1       -0.1313
     31 N          65.6567   96.7031    7.1633 N.pl3   1  UNL1       -0.2906
     32 H          68.4563   96.5082    9.2305 H       1  UNL1        0.3060
     33 H          64.8001   96.2557    6.9752 H       1  UNL1        0.2545
     34 H          65.9210   97.4978    6.6458 H       1  UNL1        0.2545
     35 C          66.5792   92.0447   14.7489 C.3     1  UNL1        0.4183
     36 F          67.2253   91.7629   16.0730 F       1  UNL1       -0.1659
     37 F          65.6701   93.0414   15.4047 F       1  UNL1       -0.1659
     38 F          67.4883   91.0480   14.0931 F       1  UNL1       -0.1659
@<TRIPOS>BOND
     1    21    22    1
     2    22    23    2
     3    22    24    2
     4    22    15    1
     5    15    16   ar
     6    16    17   ar
     7    17    18   ar
     8    18    19   ar
     9    19     7    1
    10     7     8    2
    11     7     9   am
    12     9    10    1
    13    10    11    1
    14    11    12    1
    15    12     1    1
    16     1     2   ar
    17     2     3   ar
    18     3     4   ar
    19     4    25    1
    20    25    26    2
    21    25    27   am
    22    27    29    1
    23    29    30    2
    24    29    31    1
    25     4     5   ar
    26     5     6   ar
    27     6    35    1
    28    35    36    1
    29    35    37    1
    30    35    38    1
    31    12    13    1
    32    13    14    1
    33    19    20   ar
    34    20    15   ar
    35    14     9    1
    36     6     1   ar
    37    27    28    1
    38    30    32    1
    39    31    33    1
    40    31    34    1
@<TRIPOS>MOLECULE
*****
 38 40 0 0 0
SMALL
GASTEIGER

@<TRIPOS>ATOM
      1 C          64.5701   89.7166   13.9433 C.ar    1  UNL1       -0.0185
      2 C          65.7595   90.3406   14.6112 C.ar    1  UNL1       -0.0041
      3 C          66.2122   91.7126   14.2075 C.ar    1  UNL1        0.0057
      4 C          65.4757   92.4604   13.1360 C.ar    1  UNL1        0.0696
      5 C          64.2864   91.8364   12.4681 C.ar    1  UNL1        0.0095
      6 C          63.8336   90.4645   12.8717 C.ar    1  UNL1        0.0677
      7 C          62.7590   84.2291   15.5576 C.2     1  UNL1        0.2491
      8 O          62.4433   83.9359   16.9945 O.2     1  UNL1       -0.2699
      9 N          63.2118   85.6009   15.1540 N.am    1  UNL1       -0.2761
     10 C          63.5274   85.8941   13.7172 C.3     1  UNL1        0.0940
     11 C          63.9802   87.2661   13.3137 C.3     1  UNL1        0.0259
     12 C          64.1174   88.3448   14.3469 C.3     1  UNL1        0.0257
     13 C          63.8017   88.0516   15.7837 C.3     1  UNL1        0.0259
     14 C          63.3489   86.6797   16.1873 C.3     1  UNL1        0.0940
     15 C          63.2010   82.1944   12.1791 C.ar    1  UNL1        0.1059
     16 C          62.3475   80.9929   12.4580 C.ar    1  UNL1        0.0183
     17 C          61.6312   80.8701   13.7702 C.ar    1  UNL1        0.0015
     18 C          61.7683   81.9488   14.8034 C.ar    1  UNL1        0.0046
     19 C          62.6218   83.1503   14.5244 C.ar    1  UNL1        0.0549
     20 C          63.3381   83.2731   13.2123 C.ar    1  UNL1        0.0229
     21 C          64.6337   82.4401    9.5547 C.3     1  UNL1        0.1816
     22 S          63.9174   82.3173   10.8669 S.O2    1  UNL1        0.0105
     23 O          63.1706   81.1245   10.3476 O.2     1  UNL1       -0.1686
     24 O          64.6641   83.5100   11.3862 O.2     1  UNL1       -0.1686
     25 C          65.9285   93.8323   12.7324 C.2     1  UNL1        0.3078
     26 O          66.5220   94.7569   13.7536 O.2     1  UNL1       -0.2516
     27 N          65.7878   94.2796   11.3076 N.am    1  UNL1       -0.1708
     28 H          65.3982   93.6728   10.6373 H       1  UNL1        0.2545
     29 C          66.2406   95.6515   10.9040 C.2     1  UNL1        0.3751
     30 N          65.7551   96.8537   11.6583 N.pl3   1  UNL1       -0.1313
     31 N          67.1789   95.8212    9.7461 N.pl3   1  UNL1       -0.2906
     32 H          65.1393   96.7423   12.4183 H       1  UNL1        0.3060
     33 H          67.4975   95.0322    9.2510 H       1  UNL1        0.2545
     34 H          67.4761   96.7216    9.4812 H       1  UNL1        0.2545
     35 C          62.6443   89.8405   12.2037 C.3     1  UNL1        0.4183
     36 F          61.4550   89.2165   11.5358 F       1  UNL1       -0.1659
     37 F          63.4484   89.6477   10.9522 F       1  UNL1       -0.1659
     38 F          61.8402   90.0333   13.4553 F       1  UNL1       -0.1659
@<TRIPOS>BOND
     1    21    22    1
     2    22    23    2
     3    22    24    2
     4    22    15    1
     5    15    16   ar
     6    16    17   ar
     7    17    18   ar
     8    18    19   ar
     9    19     7    1
    10     7     8    2
    11     7     9   am
    12     9    10    1
    13    10    11    1
    14    11    12    1
    15    12     1    1
    16     1     2   ar
    17     2     3   ar
    18     3     4   ar
    19     4    25    1
    20    25    26    2
    21    25    27   am
    22    27    29    1
    23    29    30    2
    24    29    31    1
    25     4     5   ar
    26     5     6   ar
    27     6    35    1
    28    35    36    1
    29    35    37    1
    30    35    38    1
    31    12    13    1
    32    13    14    1
    33    19    20   ar
    34    20    15   ar
    35    14     9    1
    36     6     1   ar
    37    27    28    1
    38    30    32    1
    39    31    33    1
    40    31    34    1
@<TRIPOS>MOLECULE
*****
 38 40 0 0 0
SMALL
GASTEIGER

@<TRIPOS>ATOM
      1 C          63.1621   84.6049   12.2108 C.ar    1  UNL1       -0.0185
      2 C          63.2370   84.0335   10.8259 C.ar    1  UNL1       -0.0041
      3 C          63.1528   82.5499   10.6212 C.ar    1  UNL1        0.0057
      4 C          62.9938   81.6377   11.8013 C.ar    1  UNL1        0.0696
      5 C          62.9190   82.2091   13.1861 C.ar    1  UNL1        0.0095
      6 C          63.0031   83.6926   13.3910 C.ar    1  UNL1        0.0677
      7 C          63.4986   90.5391   13.0301 C.2     1  UNL1        0.2491
      8 O          62.8240   91.4688   12.0655 O.2     1  UNL1       -0.2699
      9 N          63.4145   89.0555   12.8253 N.am    1  UNL1       -0.2761
     10 C          64.0891   88.1258   13.7899 C.3     1  UNL1        0.0940
     11 C          64.0049   86.6422   13.5851 C.3     1  UNL1        0.0259
     12 C          63.2462   86.0884   12.4156 C.3     1  UNL1        0.0257
     13 C          62.5716   87.0181   11.4510 C.3     1  UNL1        0.0259
     14 C          62.6558   88.5017   11.6558 C.3     1  UNL1        0.0940
     15 C          66.4463   92.0676   15.2038 C.ar    1  UNL1        0.1059
     16 C          65.7748   92.2006   16.5384 C.ar    1  UNL1        0.0183
     17 C          64.3446   91.7798   16.7037 C.ar    1  UNL1        0.0015
     18 C          63.5858   91.2260   15.5343 C.ar    1  UNL1        0.0046
     19 C          64.2574   91.0929   14.1996 C.ar    1  UNL1        0.0549
     20 C          65.6876   91.5137   14.0344 C.ar    1  UNL1        0.0229
     21 C          69.3068   92.9092   14.8733 C.3     1  UNL1        0.1816
     22 S          67.8766   92.4884   15.0385 S.O2    1  UNL1        0.0105
     23 O          68.1017   92.3009   16.5097 O.2     1  UNL1       -0.1686
     24 O          67.6515   92.6759   13.5674 O.2     1  UNL1       -0.1686
     25 C          62.9097   80.1542   11.5964 C.2     1  UNL1        0.3078
     26 O          62.4838   79.2640   12.7262 O.2     1  UNL1       -0.2516
     27 N          63.2515   79.5607   10.2619 N.am    1  UNL1       -0.1708
     28 H          63.5310   80.1449    9.5204 H       1  UNL1        0.2545
     29 C          63.1674   78.0771   10.0571 C.2     1  UNL1        0.3751
     30 N          64.2243   77.3684    9.2630 N.pl3   1  UNL1       -0.1313
     31 N          62.0263   77.3022   10.6466 N.pl3   1  UNL1       -0.2906
     32 H          64.9732   77.8771    8.8761 H       1  UNL1        0.3060
     33 H          61.3326   77.7673   11.1678 H       1  UNL1        0.2545
     34 H          61.9710   76.3284   10.5122 H       1  UNL1        0.2545
     35 C          62.9282   84.2640   14.7758 C.3     1  UNL1        0.4183
     36 F          62.8534   84.8354   16.1607 F       1  UNL1       -0.1659
     37 F          61.4701   84.5546   14.5771 F       1  UNL1       -0.1659
     38 F          64.3863   83.9734   14.9746 F       1  UNL1       -0.1659
@<TRIPOS>BOND
     1    21    22    1
     2    22    23    2
     3    22    24    2
     4    22    15    1
     5    15    16   ar
     6    16    17   ar
     7    17    18   ar
     8    18    19   ar
     9    19     7    1
    10     7     8    2
    11     7     9   am
    12     9    10    1
    13    10    11    1
    14    11    12    1
    15    12     1    1
    16     1     2   ar
    17     2     3   ar
    18     3     4   ar
    19     4    25    1
    20    25    26    2
    21    25    27   am
    22    27    29    1
    23    29    30    2
    24    29    31    1
    25     4     5   ar
    26     5     6   ar
    27     6    35    1
    28    35    36    1
    29    35    37    1
    30    35    38    1
    31    12    13    1
    32    13    14    1
    33    19    20   ar
    34    20    15   ar
    35    14     9    1
    36     6     1   ar
    37    27    28    1
    38    30    32    1
    39    31    33    1
    40    31    34    1
@<TRIPOS>MOLECULE
*****
 38 40 0 0 0
SMALL
GASTEIGER

@<TRIPOS>ATOM
      1 C          60.8463   87.3070    8.6809 C.ar    1  UNL1       -0.0185
      2 C          60.0857   86.7834    7.4989 C.ar    1  UNL1       -0.0041
      3 C          59.2921   87.7239    6.6411 C.ar    1  UNL1        0.0057
      4 C          59.2590   89.1880    6.9655 C.ar    1  UNL1        0.0696
      5 C          60.0196   89.7116    8.1476 C.ar    1  UNL1        0.0095
      6 C          60.8132   88.7712    9.0053 C.ar    1  UNL1        0.0677
      7 C          64.0208   83.5452   12.1118 C.2     1  UNL1        0.2491
      8 O          64.9431   82.5476   11.4762 O.2     1  UNL1       -0.2699
      9 N          63.2272   84.4857   11.2541 N.am    1  UNL1       -0.2761
     10 C          62.3049   85.4833   11.8898 C.3     1  UNL1        0.0940
     11 C          61.5112   86.4238   11.0320 C.3     1  UNL1        0.0259
     12 C          61.6399   86.3666    9.5386 C.3     1  UNL1        0.0257
     13 C          62.5622   85.3689    8.9030 C.3     1  UNL1        0.0259
     14 C          63.3558   84.4285    9.7607 C.3     1  UNL1        0.0940
     15 C          63.4990   84.9701   15.7789 C.ar    1  UNL1        0.1059
     16 C          63.6349   83.7169   16.5919 C.ar    1  UNL1        0.0183
     17 C          63.8993   82.4065   15.9116 C.ar    1  UNL1        0.0015
     18 C          64.0280   82.3492   14.4182 C.ar    1  UNL1        0.0046
     19 C          63.8922   83.6024   13.6052 C.ar    1  UNL1        0.0549
     20 C          63.6277   84.9128   14.2856 C.ar    1  UNL1        0.0229
     21 C          62.9701   87.5909   17.1396 C.3     1  UNL1        0.1816
     22 S          63.2346   86.2805   16.4593 S.O2    1  UNL1        0.0105
     23 O          62.4554   85.5695   17.5258 O.2     1  UNL1       -0.1686
     24 O          64.0137   86.9914   15.3927 O.2     1  UNL1       -0.1686
     25 C          58.4654   90.1284    6.1078 C.2     1  UNL1        0.3078
     26 O          56.9675   90.0483    6.0943 O.2     1  UNL1       -0.2516
     27 N          59.1695   91.1490    5.2636 N.am    1  UNL1       -0.1708
     28 H          60.1526   91.2016    5.2725 H       1  UNL1        0.2545
     29 C          58.3758   92.0894    4.4059 C.2     1  UNL1        0.3751
     30 N          57.0037   92.5182    4.8341 N.pl3   1  UNL1       -0.1313
     31 N          58.9543   92.6011    3.1200 N.pl3   1  UNL1       -0.2906
     32 H          56.6240   92.1824    5.6781 H       1  UNL1        0.3060
     33 H          59.8549   92.3197    2.8390 H       1  UNL1        0.2545
     34 H          58.4334   93.2184    2.5571 H       1  UNL1        0.2545
     35 C          61.5738   89.2949   10.1874 C.3     1  UNL1        0.4183
     36 F          62.3343   89.8185   11.3695 F       1  UNL1       -0.1659
     37 F          60.2837   89.5120   10.9212 F       1  UNL1       -0.1659
     38 F          62.8639   89.0777    9.4535 F       1  UNL1       -0.1659
@<TRIPOS>BOND
     1    21    22    1
     2    22    23    2
     3    22    24    2
     4    22    15    1
     5    15    16   ar
     6    16    17   ar
     7    17    18   ar
     8    18    19   ar
     9    19     7    1
    10     7     8    2
    11     7     9   am
    12     9    10    1
    13    10    11    1
    14    11    12    1
    15    12     1    1
    16     1     2   ar
    17     2     3   ar
    18     3     4   ar
    19     4    25    1
    20    25    26    2
    21    25    27   am
    22    27    29    1
    23    29    30    2
    24    29    31    1
    25     4     5   ar
    26     5     6   ar
    27     6    35    1
    28    35    36    1
    29    35    37    1
    30    35    38    1
    31    12    13    1
    32    13    14    1
    33    19    20   ar
    34    20    15   ar
    35    14     9    1
    36     6     1   ar
    37    27    28    1
    38    30    32    1
    39    31    33    1
    40    31    34    1
@<TRIPOS>MOLECULE
*****
 38 40 0 0 0
SMALL
GASTEIGER

@<TRIPOS>ATOM
      1 C          60.8059   87.9497    9.2390 C.ar    1  UNL1       -0.0185
      2 C          60.1706   87.2518    8.0731 C.ar    1  UNL1       -0.0041
      3 C          59.4507   88.0469    7.0244 C.ar    1  UNL1        0.0057
      4 C          59.3661   89.5399    7.1417 C.ar    1  UNL1        0.0696
      5 C          60.0013   90.2378    8.3076 C.ar    1  UNL1        0.0095
      6 C          60.7212   89.4428    9.3562 C.ar    1  UNL1        0.0677
      7 C          63.6856   84.7695   13.4334 C.2     1  UNL1        0.2491
      8 O          64.5535   85.4665   14.4388 O.2     1  UNL1       -0.2699
      9 N          62.9656   85.5645   12.3848 N.am    1  UNL1       -0.2761
     10 C          62.0977   84.8675   11.3794 C.3     1  UNL1        0.0940
     11 C          61.3777   85.6627   10.3308 C.3     1  UNL1        0.0259
     12 C          61.5258   87.1547   10.2876 C.3     1  UNL1        0.0257
     13 C          62.3938   87.8517   11.2930 C.3     1  UNL1        0.0259
     14 C          63.1137   87.0566   12.3416 C.3     1  UNL1        0.0940
     15 C          63.1974   81.0136   12.2480 C.ar    1  UNL1        0.1059
     16 C          63.2414   80.2933   13.5630 C.ar    1  UNL1        0.0183
     17 C          63.4335   81.0651   14.8348 C.ar    1  UNL1        0.0015
     18 C          63.5815   82.5571   14.7916 C.ar    1  UNL1        0.0046
     19 C          63.5375   83.2774   13.4766 C.ar    1  UNL1        0.0549
     20 C          63.3454   82.5056   12.2048 C.ar    1  UNL1        0.0229
     21 C          62.8133   79.4701    9.7044 C.3     1  UNL1        0.1816
     22 S          63.0053   80.2418   10.9762 S.O2    1  UNL1        0.0105
     23 O          62.5736   79.0436   11.7685 O.2     1  UNL1       -0.1686
     24 O          63.4371   81.4401   10.1839 O.2     1  UNL1       -0.1686
     25 C          58.6462   90.3349    6.0932 C.2     1  UNL1        0.3078
     26 O          57.1600   90.2015    5.9394 O.2     1  UNL1       -0.2516
     27 N          59.4123   91.2634    5.1982 N.am    1  UNL1       -0.1708
     28 H          60.3877   91.3509    5.2991 H       1  UNL1        0.2545
     29 C          58.6924   92.0584    4.1496 C.2     1  UNL1        0.3751
     30 N          59.4688   92.9083    3.1879 N.pl3   1  UNL1       -0.1313
     31 N          57.1959   92.0036    4.0627 N.pl3   1  UNL1       -0.2906
     32 H          60.4510   92.9442    3.2450 H       1  UNL1        0.3060
     33 H          56.6863   91.4458    4.6938 H       1  UNL1        0.2545
     34 H          56.7233   92.5254    3.3744 H       1  UNL1        0.2545
     35 C          61.3565   90.1407   10.5221 C.3     1  UNL1        0.4183
     36 F          61.9918   90.8386   11.6880 F       1  UNL1       -0.1659
     37 F          62.6152   90.3235    9.7269 F       1  UNL1       -0.1659
     38 F          60.0978   89.9580   11.3174 F       1  UNL1       -0.1659
@<TRIPOS>BOND
     1    21    22    1
     2    22    23    2
     3    22    24    2
     4    22    15    1
     5    15    16   ar
     6    16    17   ar
     7    17    18   ar
     8    18    19   ar
     9    19     7    1
    10     7     8    2
    11     7     9   am
    12     9    10    1
    13    10    11    1
    14    11    12    1
    15    12     1    1
    16     1     2   ar
    17     2     3   ar
    18     3     4   ar
    19     4    25    1
    20    25    26    2
    21    25    27   am
    22    27    29    1
    23    29    30    2
    24    29    31    1
    25     4     5   ar
    26     5     6   ar
    27     6    35    1
    28    35    36    1
    29    35    37    1
    30    35    38    1
    31    12    13    1
    32    13    14    1
    33    19    20   ar
    34    20    15   ar
    35    14     9    1
    36     6     1   ar
    37    27    28    1
    38    30    32    1
    39    31    33    1
    40    31    34    1
@<TRIPOS>MOLECULE
*****
 38 40 0 0 0
SMALL
GASTEIGER

@<TRIPOS>ATOM
      1 C          63.1255   84.6715   12.1982 C.ar    1  UNL1       -0.0185
      2 C          63.2426   83.7438   13.3711 C.ar    1  UNL1       -0.0041
      3 C          63.1481   82.2607   13.1667 C.ar    1  UNL1        0.0057
      4 C          62.9365   81.7055   11.7894 C.ar    1  UNL1        0.0696
      5 C          62.8194   82.6332   10.6166 C.ar    1  UNL1        0.0095
      6 C          62.9139   84.1162   10.8209 C.ar    1  UNL1        0.0677
      7 C          63.5035   90.6035   13.0158 C.2     1  UNL1        0.2491
      8 O          62.8235   91.5373   12.0589 O.2     1  UNL1       -0.2699
      9 N          63.4090   89.1205   12.8114 N.am    1  UNL1       -0.2761
     10 C          64.0889   88.1867   13.7683 C.3     1  UNL1        0.0940
     11 C          63.9944   86.7036   13.5639 C.3     1  UNL1        0.0259
     12 C          63.2200   86.1545   12.4026 C.3     1  UNL1        0.0257
     13 C          62.5400   87.0883   11.4457 C.3     1  UNL1        0.0259
     14 C          62.6345   88.5713   11.6501 C.3     1  UNL1        0.0940
     15 C          66.4893   92.0948   15.1630 C.ar    1  UNL1        0.1059
     16 C          65.8268   92.2511   16.4996 C.ar    1  UNL1        0.0183
     17 C          64.3898   91.8583   16.6750 C.ar    1  UNL1        0.0015
     18 C          63.6154   91.3091   15.5137 C.ar    1  UNL1        0.0046
     19 C          64.2779   91.1527   14.1771 C.ar    1  UNL1        0.0549
     20 C          65.7149   91.5456   14.0018 C.ar    1  UNL1        0.0229
     21 C          69.3633   92.8805   14.8123 C.3     1  UNL1        0.1816
     22 S          67.9263   92.4876   14.9877 S.O2    1  UNL1        0.0105
     23 O          67.6927   92.6870   13.5195 O.2     1  UNL1       -0.1686
     24 O          68.1600   92.2883   16.4559 O.2     1  UNL1       -0.1686
     25 C          62.8420   80.2225   11.5851 C.2     1  UNL1        0.3078
     26 O          62.3692   79.3401   12.7021 O.2     1  UNL1       -0.2516
     27 N          63.2204   79.6219   10.2637 N.am    1  UNL1       -0.1708
     28 H          63.5308   80.2010    9.5305 H       1  UNL1        0.2545
     29 C          63.1259   78.1388   10.0593 C.2     1  UNL1        0.3751
     30 N          64.1855   77.4205    9.2775 N.pl3   1  UNL1       -0.1313
     31 N          61.9719   77.3742   10.6368 N.pl3   1  UNL1       -0.2906
     32 H          64.9429   77.9223    8.8985 H       1  UNL1        0.3060
     33 H          61.2765   77.8458   11.1500 H       1  UNL1        0.2545
     34 H          61.9098   76.4009   10.5027 H       1  UNL1        0.2545
     35 C          62.7968   85.0439    9.6481 C.3     1  UNL1        0.4183
     36 F          62.6797   85.9716    8.4752 F       1  UNL1       -0.1659
     37 F          64.2355   84.7929    9.3059 F       1  UNL1       -0.1659
     38 F          61.3580   85.2948    9.9902 F       1  UNL1       -0.1659
@<TRIPOS>BOND
     1    21    22    1
     2    22    23    2
     3    22    24    2
     4    22    15    1
     5    15    16   ar
     6    16    17   ar
     7    17    18   ar
     8    18    19   ar
     9    19     7    1
    10     7     8    2
    11     7     9   am
    12     9    10    1
    13    10    11    1
    14    11    12    1
    15    12     1    1
    16     1     2   ar
    17     2     3   ar
    18     3     4   ar
    19     4    25    1
    20    25    26    2
    21    25    27   am
    22    27    29    1
    23    29    30    2
    24    29    31    1
    25     4     5   ar
    26     5     6   ar
    27     6    35    1
    28    35    36    1
    29    35    37    1
    30    35    38    1
    31    12    13    1
    32    13    14    1
    33    19    20   ar
    34    20    15   ar
    35    14     9    1
    36     6     1   ar
    37    27    28    1
    38    30    32    1
    39    31    33    1
    40    31    34    1
@<TRIPOS>MOLECULE
*****
 38 40 0 0 0
SMALL
GASTEIGER

@<TRIPOS>ATOM
      1 C          60.8089   87.9337    9.2084 C.ar    1  UNL1       -0.0185
      2 C          60.4342   89.3549    9.5081 C.ar    1  UNL1       -0.0041
      3 C          59.7510   90.1867    8.4634 C.ar    1  UNL1        0.0057
      4 C          59.4424   89.5973    7.1191 C.ar    1  UNL1        0.0696
      5 C          59.8170   88.1761    6.8193 C.ar    1  UNL1        0.0095
      6 C          60.5002   87.3443    7.8640 C.ar    1  UNL1        0.0677
      7 C          63.5418   84.6065   13.3870 C.2     1  UNL1        0.2491
      8 O          64.4404   85.2587   14.3955 O.2     1  UNL1       -0.2699
      9 N          62.8586   85.4383   12.3423 N.am    1  UNL1       -0.2761
     10 C          61.9600   84.7861   11.3338 C.3     1  UNL1        0.0940
     11 C          61.2767   85.6179   10.2891 C.3     1  UNL1        0.0259
     12 C          61.4921   87.1019   10.2530 C.3     1  UNL1        0.0257
     13 C          62.3907   87.7541   11.2616 C.3     1  UNL1        0.0259
     14 C          63.0739   86.9223   12.3062 C.3     1  UNL1        0.0940
     15 C          63.0380   80.8598   12.1791 C.ar    1  UNL1        0.1059
     16 C          62.8958   80.1544   13.4952 C.ar    1  UNL1        0.0183
     17 C          62.9690   80.9330   14.7752 C.ar    1  UNL1        0.0015
     18 C          63.1843   82.4170   14.7391 C.ar    1  UNL1        0.0046
     19 C          63.3264   83.1224   13.4231 C.ar    1  UNL1        0.0549
     20 C          63.2533   82.3438   12.1430 C.ar    1  UNL1        0.0229
     21 C          62.8916   79.3027    9.6190 C.3     1  UNL1        0.1816
     22 S          62.9648   80.0813   10.8991 S.O2    1  UNL1        0.0105
     23 O          62.5297   78.8660   11.6631 O.2     1  UNL1       -0.1686
     24 O          63.3999   81.2965   10.1350 O.2     1  UNL1       -0.1686
     25 C          58.7592   90.4290    6.0744 C.2     1  UNL1        0.3078
     26 O          57.2695   90.3566    5.9141 O.2     1  UNL1       -0.2516
     27 N          59.5655   91.3333    5.1901 N.am    1  UNL1       -0.1708
     28 H          60.5432   91.3809    5.2954 H       1  UNL1        0.2545
     29 C          58.8822   92.1652    4.1455 C.2     1  UNL1        0.3751
     30 N          57.4085   92.0129    3.9112 N.pl3   1  UNL1       -0.1313
     31 N          59.6727   93.1492    3.3351 N.pl3   1  UNL1       -0.2906
     32 H          56.8897   91.3670    4.4431 H       1  UNL1        0.3060
     33 H          60.6400   93.2492    3.4888 H       1  UNL1        0.2545
     34 H          59.2243   93.6952    2.6494 H       1  UNL1        0.2545
     35 C          60.8748   85.9231    7.5643 C.3     1  UNL1        0.4183
     36 F          61.2495   84.5019    7.2646 F       1  UNL1       -0.1659
     37 F          62.3255   86.2738    7.7145 F       1  UNL1       -0.1659
     38 F          59.4242   85.5724    7.4141 F       1  UNL1       -0.1659
@<TRIPOS>BOND
     1    21    22    1
     2    22    23    2
     3    22    24    2
     4    22    15    1
     5    15    16   ar
     6    16    17   ar
     7    17    18   ar
     8    18    19   ar
     9    19     7    1
    10     7     8    2
    11     7     9   am
    12     9    10    1
    13    10    11    1
    14    11    12    1
    15    12     1    1
    16     1     2   ar
    17     2     3   ar
    18     3     4   ar
    19     4    25    1
    20    25    26    2
    21    25    27   am
    22    27    29    1
    23    29    30    2
    24    29    31    1
    25     4     5   ar
    26     5     6   ar
    27     6    35    1
    28    35    36    1
    29    35    37    1
    30    35    38    1
    31    12    13    1
    32    13    14    1
    33    19    20   ar
    34    20    15   ar
    35    14     9    1
    36     6     1   ar
    37    27    28    1
    38    30    32    1
    39    31    33    1
    40    31    34    1
@<TRIPOS>MOLECULE
*****
 38 40 0 0 0
SMALL
GASTEIGER

@<TRIPOS>ATOM
      1 C          63.2949   84.2952   13.6482 C.ar    1  UNL1       -0.0185
      2 C          63.6161   83.1257   14.5309 C.ar    1  UNL1       -0.0041
      3 C          63.4605   81.7278   14.0098 C.ar    1  UNL1        0.0057
      4 C          62.9837   81.4993   12.6061 C.ar    1  UNL1        0.0696
      5 C          62.6625   82.6688   11.7234 C.ar    1  UNL1        0.0095
      6 C          62.8181   84.0668   12.2445 C.ar    1  UNL1        0.0677
      7 C          63.9173   89.8870   15.7324 C.2     1  UNL1        0.2491
      8 O          63.3219   90.2646   17.0564 O.2     1  UNL1       -0.2699
      9 N          63.7617   88.4891   15.2114 N.am    1  UNL1       -0.2761
     10 C          64.3571   88.1116   13.8874 C.3     1  UNL1        0.0940
     11 C          64.2015   86.7136   13.3664 C.3     1  UNL1        0.0259
     12 C          63.4505   85.6932   14.1693 C.3     1  UNL1        0.0257
     13 C          62.8551   86.0707   15.4933 C.3     1  UNL1        0.0259
     14 C          63.0107   87.4686   16.0144 C.3     1  UNL1        0.0940
     15 C          66.6695   92.5454   14.6796 C.ar    1  UNL1        0.1059
     16 C          66.1703   92.9484   13.3237 C.ar    1  UNL1        0.0183
     17 C          64.9202   92.3309   12.7707 C.ar    1  UNL1        0.0015
     18 C          64.1692   91.3105   13.5736 C.ar    1  UNL1        0.0046
     19 C          64.6683   90.9075   14.9295 C.ar    1  UNL1        0.0549
     20 C          65.9185   91.5250   15.4825 C.ar    1  UNL1        0.0229
     21 C          69.1698   93.7804   15.7856 C.3     1  UNL1        0.1816
     22 S          67.9197   93.1629   15.2326 S.O2    1  UNL1        0.0105
     23 O          67.1640   93.6005   16.4522 O.2     1  UNL1       -0.1686
     24 O          68.6753   92.7253   14.0129 O.2     1  UNL1       -0.1686
     25 C          62.8281   80.1014   12.0850 C.2     1  UNL1        0.3078
     26 O          62.3344   79.0135   12.9921 O.2     1  UNL1       -0.2516
     27 N          63.1662   79.7913   10.6569 N.am    1  UNL1       -0.1708
     28 H          63.4903   80.5053   10.0616 H       1  UNL1        0.2545
     29 C          63.0106   78.3933   10.1359 C.2     1  UNL1        0.3751
     30 N          61.9303   77.5061   10.6797 N.pl3   1  UNL1       -0.1313
     31 N          63.9354   77.8825    9.0710 N.pl3   1  UNL1       -0.2906
     32 H          61.3233   77.8414   11.3786 H       1  UNL1        0.3060
     33 H          64.6445   78.4648    8.7141 H       1  UNL1        0.2545
     34 H          63.8333   76.9650    8.7290 H       1  UNL1        0.2545
     35 C          62.4968   85.2363   11.3618 C.3     1  UNL1        0.4183
     36 F          62.1756   86.4058   10.4792 F       1  UNL1       -0.1659
     37 F          61.3687   85.6154   12.2748 F       1  UNL1       -0.1659
     38 F          63.6250   84.8571   10.4489 F       1  UNL1       -0.1659
@<TRIPOS>BOND
     1    21    22    1
     2    22    23    2
     3    22    24    2
     4    22    15    1
     5    15    16   ar
     6    16    17   ar
     7    17    18   ar
     8    18    19   ar
     9    19     7    1
    10     7     8    2
    11     7     9   am
    12     9    10    1
    13    10    11    1
    14    11    12    1
    15    12     1    1
    16     1     2   ar
    17     2     3   ar
    18     3     4   ar
    19     4    25    1
    20    25    26    2
    21    25    27   am
    22    27    29    1
    23    29    30    2
    24    29    31    1
    25     4     5   ar
    26     5     6   ar
    27     6    35    1
    28    35    36    1
    29    35    37    1
    30    35    38    1
    31    12    13    1
    32    13    14    1
    33    19    20   ar
    34    20    15   ar
    35    14     9    1
    36     6     1   ar
    37    27    28    1
    38    30    32    1
    39    31    33    1
    40    31    34    1
