@<TRIPOS>MOLECULE
*****
 27 31 0 0 0
SMALL
GASTEIGER

@<TRIPOS>ATOM
      1 C          65.6535   92.3250   11.7419 C.2     1  UNL1        0.0565
      2 C          64.5812   91.4888   11.1089 C.2     1  UNL1        0.0584
      3 C          63.6088   90.7385   11.9700 C.2     1  UNL1        0.1962
      4 N          63.7087   90.8244   13.4642 N.2     1  UNL1       -0.0378
      5 C          64.7810   91.6606   14.0973 C.2     1  UNL1        0.3605
      6 N          65.1242   91.9352   15.5315 N.2     1  UNL1       -0.0343
      7 C          66.3087   92.8551   15.5567 C.2     1  UNL1        0.2321
      8 C          66.6976   93.1492   14.1382 C.2     1  UNL1        0.0421
      9 C          65.7534   92.4109   13.2362 C.3     1  UNL1        0.1740
     10 O          68.7423   91.4627   11.1373 O.2     1  UNL1       -0.2497
     11 C          68.0456   92.6789   10.6029 C.2     1  UNL1        0.3346
     12 N          68.6464   93.7123    9.6968 N.am    1  UNL1       -0.1628
     13 C          67.5980   94.7474    9.4147 C.2     1  UNL1        0.0912
     14 C          67.6192   95.9975    8.5861 C.3     1  UNL1        0.1696
     15 N          66.3915   96.8539    8.4892 N.2     1  UNL1       -0.2626
     16 C          65.1427   96.4601    9.2210 C.2     1  UNL1        0.0949
     17 C          65.1216   95.2100   10.0497 C.2     1  UNL1        0.0365
     18 C          66.3493   94.3536   10.1465 C.2     1  UNL1        0.0741
     19 N          66.6259   93.0753   10.8808 N.am    1  UNL1       -0.2220
     20 C          62.5365   89.9022   11.3369 C.ar    1  UNL1        0.0706
     21 C          61.4896   90.5488   10.4791 C.ar    1  UNL1        0.0083
     22 C          60.4172   89.7125    9.8460 C.ar    1  UNL1        0.0299
     23 C          60.3918   88.2297   10.0708 C.ar    1  UNL1        0.1424
     24 F          59.3194   87.3935    9.4377 F       1  UNL1       -0.2041
     25 C          61.4387   87.5832   10.9286 C.ar    1  UNL1        0.0594
     26 C          62.5110   88.4194   11.5617 C.ar    1  UNL1        0.1459
     27 F          63.5579   87.7728   12.4195 F       1  UNL1       -0.2040
@<TRIPOS>BOND
     1    10    11    2
     2    11    12    1
     3    12    13    2
     4    13    14    1
     5    14    15    1
     6    15    16    2
     7    16    17    1
     8    17    18    2
     9    18    19    1
    10    19     1    1
    11     1     2    2
    12     2     3    1
    13     3    20    1
    14    20    21   ar
    15    21    22   ar
    16    22    23   ar
    17    23    24    1
    18    23    25   ar
    19    25    26   ar
    20    26    27    1
    21     3     4    2
    22     4     5    1
    23     5     6    2
    24     6     7    1
    25     7     8    2
    26     8     9    1
    27    19    11   am
    28     9     1    1
    29    18    13    1
    30    26    20   ar
    31     9     5    1
@<TRIPOS>MOLECULE
*****
 27 31 0 0 0
SMALL
GASTEIGER

@<TRIPOS>ATOM
      1 C          63.1323   89.1889   12.5525 C.2     1  UNL1        0.0565
      2 C          63.5183   87.7639   12.8175 C.2     1  UNL1        0.0584
      3 C          62.7264   86.6462   12.2063 C.2     1  UNL1        0.1962
      4 N          61.5485   86.9534   11.3299 N.2     1  UNL1       -0.0378
      5 C          61.1624   88.3784   11.0649 C.2     1  UNL1        0.3605
      6 N          60.0589   88.9843   10.2493 N.2     1  UNL1       -0.0343
      7 C          60.1688   90.4764   10.3565 C.2     1  UNL1        0.2321
      8 C          61.3402   90.7928   11.2383 C.2     1  UNL1        0.0421
      9 C          61.9542   89.4962   11.6761 C.3     1  UNL1        0.1740
     10 O          63.6610   89.6452   15.7403 O.2     1  UNL1       -0.2497
     11 C          64.1672   90.5163   14.6290 C.2     1  UNL1        0.3346
     12 N          65.0052   91.7502   14.7878 N.am    1  UNL1       -0.1628
     13 C          65.2802   92.3030   13.4208 C.2     1  UNL1        0.0912
     14 C          66.0526   93.5035   12.9603 C.3     1  UNL1        0.1696
     15 N          66.1568   93.8118   11.4961 N.2     1  UNL1       -0.2626
     16 C          65.4886   92.9196   10.4923 C.2     1  UNL1        0.0949
     17 C          64.7162   91.7191   10.9528 C.2     1  UNL1        0.0365
     18 C          64.6120   91.4108   12.4170 C.2     1  UNL1        0.0741
     19 N          63.9242   90.3066   13.1638 N.am    1  UNL1       -0.2220
     20 C          63.1125   85.2212   12.4713 C.ar    1  UNL1        0.0706
     21 C          62.7562   84.1511   11.4824 C.ar    1  UNL1        0.0083
     22 C          63.1423   82.7261   11.7475 C.ar    1  UNL1        0.0299
     23 C          63.8848   82.3711   13.0016 C.ar    1  UNL1        0.1424
     24 F          64.2708   80.9461   13.2666 F       1  UNL1       -0.2041
     25 C          64.2411   83.4411   13.9905 C.ar    1  UNL1        0.0594
     26 C          63.8550   84.8661   13.7254 C.ar    1  UNL1        0.1459
     27 F          64.2114   85.9361   14.7144 F       1  UNL1       -0.2040
@<TRIPOS>BOND
     1    10    11    2
     2    11    12    1
     3    12    13    2
     4    13    14    1
     5    14    15    1
     6    15    16    2
     7    16    17    1
     8    17    18    2
     9    18    19    1
    10    19     1    1
    11     1     2    2
    12     2     3    1
    13     3    20    1
    14    20    21   ar
    15    21    22   ar
    16    22    23   ar
    17    23    24    1
    18    23    25   ar
    19    25    26   ar
    20    26    27    1
    21     3     4    2
    22     4     5    1
    23     5     6    2
    24     6     7    1
    25     7     8    2
    26     8     9    1
    27    19    11   am
    28     9     1    1
    29    18    13    1
    30    26    20   ar
    31     9     5    1
@<TRIPOS>MOLECULE
*****
 27 31 0 0 0
SMALL
GASTEIGER

@<TRIPOS>ATOM
      1 C          62.4872   86.5123   11.2252 C.2     1  UNL1        0.0565
      2 C          63.2261   87.4828   12.0981 C.2     1  UNL1        0.0584
      3 C          62.8918   88.9441   12.0454 C.2     1  UNL1        0.1962
      4 N          61.8184   89.4350   11.1198 N.2     1  UNL1       -0.0378
      5 C          61.0793   88.4645   10.2468 C.2     1  UNL1        0.3605
      6 N          59.9808   88.6528    9.2430 N.2     1  UNL1       -0.0343
      7 C          59.6362   87.3078    8.6752 C.2     1  UNL1        0.2321
      8 C          60.5218   86.2883    9.3282 C.2     1  UNL1        0.0421
      9 C          61.4137   87.0032   10.2995 C.3     1  UNL1        0.1740
     10 O          63.4184   84.6655    8.7010 O.2     1  UNL1       -0.2497
     11 C          63.2496   84.2021   10.1176 C.2     1  UNL1        0.3346
     12 N          63.4792   82.8085   10.6228 N.am    1  UNL1       -0.1628
     13 C          63.1930   82.7961   12.0952 C.2     1  UNL1        0.0912
     14 C          63.2500   81.7019   13.1195 C.3     1  UNL1        0.1696
     15 N          62.9005   81.9936   14.5487 N.2     1  UNL1       -0.2626
     16 C          62.4941   83.3795   14.9536 C.2     1  UNL1        0.0949
     17 C          62.4371   84.4738   13.9293 C.2     1  UNL1        0.0365
     18 C          62.7865   84.1821   12.5000 C.2     1  UNL1        0.0741
     19 N          62.8215   85.0510   11.2779 N.am    1  UNL1       -0.2220
     20 C          63.6308   89.9145   12.9184 C.ar    1  UNL1        0.0706
     21 C          63.7121   89.6811   14.3978 C.ar    1  UNL1        0.0083
     22 C          64.4511   90.6515   15.2708 C.ar    1  UNL1        0.0299
     23 C          65.1089   91.8554   14.6643 C.ar    1  UNL1        0.1424
     24 F          65.8480   92.8259   15.5372 F       1  UNL1       -0.2041
     25 C          65.0277   92.0889   13.1848 C.ar    1  UNL1        0.0594
     26 C          64.2886   91.1184   12.3119 C.ar    1  UNL1        0.1459
     27 F          64.2074   91.3519   10.8324 F       1  UNL1       -0.2040
@<TRIPOS>BOND
     1    10    11    2
     2    11    12    1
     3    12    13    2
     4    13    14    1
     5    14    15    1
     6    15    16    2
     7    16    17    1
     8    17    18    2
     9    18    19    1
    10    19     1    1
    11     1     2    2
    12     2     3    1
    13     3    20    1
    14    20    21   ar
    15    21    22   ar
    16    22    23   ar
    17    23    24    1
    18    23    25   ar
    19    25    26   ar
    20    26    27    1
    21     3     4    2
    22     4     5    1
    23     5     6    2
    24     6     7    1
    25     7     8    2
    26     8     9    1
    27    19    11   am
    28     9     1    1
    29    18    13    1
    30    26    20   ar
    31     9     5    1
@<TRIPOS>MOLECULE
*****
 27 31 0 0 0
SMALL
GASTEIGER

@<TRIPOS>ATOM
      1 C          63.9177   90.4430   12.6008 C.2     1  UNL1        0.0565
      2 C          64.5898   91.3194   11.5860 C.2     1  UNL1        0.0584
      3 C          65.3517   92.5328   12.0299 C.2     1  UNL1        0.1962
      4 N          65.4414   92.8699   13.4887 N.2     1  UNL1       -0.0378
      5 C          64.7693   91.9935   14.5037 C.2     1  UNL1        0.3605
      6 N          64.6849   92.0724   15.9993 N.2     1  UNL1       -0.0343
      7 C          63.8709   90.9076   16.4796 C.2     1  UNL1        0.2321
      8 C          63.4521   90.1089   15.2810 C.2     1  UNL1        0.0421
      9 C          64.0074   90.7801   14.0598 C.3     1  UNL1        0.1740
     10 O          64.2362   87.4291   13.8111 O.2     1  UNL1       -0.2497
     11 C          63.3022   87.8442   12.7133 C.2     1  UNL1        0.3346
     12 N          62.3507   86.9469   11.9789 N.am    1  UNL1       -0.1628
     13 C          61.6161   87.7776   10.9687 C.2     1  UNL1        0.0912
     14 C          60.5585   87.4316    9.9630 C.3     1  UNL1        0.1696
     15 N          59.9984   88.4965    9.0672 N.2     1  UNL1       -0.2626
     16 C          60.4960   89.9073    9.1773 C.2     1  UNL1        0.0949
     17 C          61.5537   90.2532   10.1830 C.2     1  UNL1        0.0365
     18 C          62.1137   89.1883   11.0788 C.2     1  UNL1        0.0741
     19 N          63.1558   89.2295   12.1569 N.am    1  UNL1       -0.2220
     20 C          66.0238   93.4092   11.0149 C.ar    1  UNL1        0.0706
     21 C          65.4911   94.7844   10.7411 C.ar    1  UNL1        0.0083
     22 C          66.1632   95.6608    9.7261 C.ar    1  UNL1        0.0299
     23 C          67.3681   95.1620    8.9849 C.ar    1  UNL1        0.1424
     24 F          68.0403   96.0384    7.9700 F       1  UNL1       -0.2041
     25 C          67.9008   93.7868    9.2587 C.ar    1  UNL1        0.0594
     26 C          67.2287   92.9104   10.2737 C.ar    1  UNL1        0.1459
     27 F          67.7615   91.5352   10.5475 F       1  UNL1       -0.2040
@<TRIPOS>BOND
     1    10    11    2
     2    11    12    1
     3    12    13    2
     4    13    14    1
     5    14    15    1
     6    15    16    2
     7    16    17    1
     8    17    18    2
     9    18    19    1
    10    19     1    1
    11     1     2    2
    12     2     3    1
    13     3    20    1
    14    20    21   ar
    15    21    22   ar
    16    22    23   ar
    17    23    24    1
    18    23    25   ar
    19    25    26   ar
    20    26    27    1
    21     3     4    2
    22     4     5    1
    23     5     6    2
    24     6     7    1
    25     7     8    2
    26     8     9    1
    27    19    11   am
    28     9     1    1
    29    18    13    1
    30    26    20   ar
    31     9     5    1
@<TRIPOS>MOLECULE
*****
 27 31 0 0 0
SMALL
GASTEIGER

@<TRIPOS>ATOM
      1 C          62.6960   88.5685   11.9502 C.2     1  UNL1        0.0565
      2 C          63.1057   87.2001   12.4078 C.2     1  UNL1        0.0584
      3 C          62.5192   85.9838   11.7545 C.2     1  UNL1        0.1962
      4 N          61.5229   86.1360   10.6436 N.2     1  UNL1       -0.0378
      5 C          61.1132   87.5044   10.1859 C.2     1  UNL1        0.3605
      6 N          60.1599   87.9636    9.1226 N.2     1  UNL1       -0.0343
      7 C          60.1573   89.4636    9.1188 C.2     1  UNL1        0.2321
      8 C          61.1089   89.9315   10.1797 C.2     1  UNL1        0.0421
      9 C          61.6997   88.7207   10.8391 C.3     1  UNL1        0.1740
     10 O          63.9962   91.1347   10.4095 O.2     1  UNL1       -0.2497
     11 C          63.8802   90.9643   11.8953 C.2     1  UNL1        0.3346
     12 N          64.3413   91.9435   12.9338 N.am    1  UNL1       -0.1628
     13 C          64.0288   91.3691   14.2838 C.2     1  UNL1        0.0912
     14 C          64.2555   91.8886   15.6725 C.3     1  UNL1        0.1696
     15 N          63.8278   91.0739   16.8571 N.2     1  UNL1       -0.2626
     16 C          63.1734   89.7397   16.6529 C.2     1  UNL1        0.0949
     17 C          62.9467   89.2202   15.2642 C.2     1  UNL1        0.0365
     18 C          63.3744   90.0349   14.0796 C.2     1  UNL1        0.0741
     19 N          63.2825   89.7847   12.6034 N.am    1  UNL1       -0.2220
     20 C          62.9290   84.6154   12.2122 C.ar    1  UNL1        0.0706
     21 C          62.7079   84.2038   13.6376 C.ar    1  UNL1        0.0083
     22 C          63.1177   82.8354   14.0953 C.ar    1  UNL1        0.0299
     23 C          63.7485   81.8785   13.1276 C.ar    1  UNL1        0.1424
     24 F          64.1583   80.5101   13.5853 F       1  UNL1       -0.2041
     25 C          63.9696   82.2901   11.7022 C.ar    1  UNL1        0.0594
     26 C          63.5598   83.6585   11.2445 C.ar    1  UNL1        0.1459
     27 F          63.7809   84.0701    9.8192 F       1  UNL1       -0.2040
@<TRIPOS>BOND
     1    10    11    2
     2    11    12    1
     3    12    13    2
     4    13    14    1
     5    14    15    1
     6    15    16    2
     7    16    17    1
     8    17    18    2
     9    18    19    1
    10    19     1    1
    11     1     2    2
    12     2     3    1
    13     3    20    1
    14    20    21   ar
    15    21    22   ar
    16    22    23   ar
    17    23    24    1
    18    23    25   ar
    19    25    26   ar
    20    26    27    1
    21     3     4    2
    22     4     5    1
    23     5     6    2
    24     6     7    1
    25     7     8    2
    26     8     9    1
    27    19    11   am
    28     9     1    1
    29    18    13    1
    30    26    20   ar
    31     9     5    1
@<TRIPOS>MOLECULE
*****
 27 31 0 0 0
SMALL
GASTEIGER

@<TRIPOS>ATOM
      1 C          63.0647   87.0845   12.5753 C.2     1  UNL1        0.0565
      2 C          63.8983   88.1972   13.1382 C.2     1  UNL1        0.0584
      3 C          63.6758   89.6076   12.6786 C.2     1  UNL1        0.1962
      4 N          62.6196   89.9054   11.6560 N.2     1  UNL1       -0.0378
      5 C          61.7858   88.7927   11.0930 C.2     1  UNL1        0.3605
      6 N          60.6793   88.7811   10.0804 N.2     1  UNL1       -0.0343
      7 C          60.2180   87.3635    9.9142 C.2     1  UNL1        0.2321
      8 C          61.0394   86.4990   10.8241 C.2     1  UNL1        0.0421
      9 C          62.0084   87.3823   11.5527 C.3     1  UNL1        0.1740
     10 O          63.1277   86.0644   15.6745 O.2     1  UNL1       -0.2497
     11 C          63.3161   85.2053   14.4595 C.2     1  UNL1        0.3346
     12 N          63.5666   83.7263   14.4556 N.am    1  UNL1       -0.1628
     13 C          63.6925   83.2812   13.0287 C.2     1  UNL1        0.0912
     14 C          63.9421   81.9352   12.4155 C.3     1  UNL1        0.1696
     15 N          64.0189   81.7931   10.9243 N.2     1  UNL1       -0.2626
     16 C          63.8462   82.9969   10.0463 C.2     1  UNL1        0.0949
     17 C          63.5966   84.3429   10.6594 C.2     1  UNL1        0.0365
     18 C          63.5198   84.4850   12.1507 C.2     1  UNL1        0.0741
     19 N          63.2872   85.6741   13.0349 N.am    1  UNL1       -0.2220
     20 C          64.5095   90.7202   13.2415 C.ar    1  UNL1        0.0706
     21 C          64.8265   90.7522   14.7073 C.ar    1  UNL1        0.0083
     22 C          65.6602   91.8649   15.2702 C.ar    1  UNL1        0.0299
     23 C          66.1770   92.9456   14.3674 C.ar    1  UNL1        0.1424
     24 F          67.0107   94.0582   14.9303 F       1  UNL1       -0.2041
     25 C          65.8600   92.9136   12.9017 C.ar    1  UNL1        0.0594
     26 C          65.0262   91.8009   12.3387 C.ar    1  UNL1        0.1459
     27 F          64.7093   91.7690   10.8729 F       1  UNL1       -0.2040
@<TRIPOS>BOND
     1    10    11    2
     2    11    12    1
     3    12    13    2
     4    13    14    1
     5    14    15    1
     6    15    16    2
     7    16    17    1
     8    17    18    2
     9    18    19    1
    10    19     1    1
    11     1     2    2
    12     2     3    1
    13     3    20    1
    14    20    21   ar
    15    21    22   ar
    16    22    23   ar
    17    23    24    1
    18    23    25   ar
    19    25    26   ar
    20    26    27    1
    21     3     4    2
    22     4     5    1
    23     5     6    2
    24     6     7    1
    25     7     8    2
    26     8     9    1
    27    19    11   am
    28     9     1    1
    29    18    13    1
    30    26    20   ar
    31     9     5    1
@<TRIPOS>MOLECULE
*****
 27 31 0 0 0
SMALL
GASTEIGER

@<TRIPOS>ATOM
      1 C          62.4544   87.4030   11.7863 C.2     1  UNL1        0.0565
      2 C          63.0660   88.7426   12.0709 C.2     1  UNL1        0.0584
      3 C          64.0196   88.9034   13.2176 C.2     1  UNL1        0.1962
      4 N          64.3615   87.7245   14.0797 N.2     1  UNL1       -0.0378
      5 C          63.7498   86.3848   13.7952 C.2     1  UNL1        0.3605
      6 N          63.8963   85.0515   14.4667 N.2     1  UNL1       -0.0343
      7 C          63.0333   84.0667   13.7350 C.2     1  UNL1        0.2321
      8 C          62.3534   84.7913   12.6113 C.2     1  UNL1        0.0421
      9 C          62.7962   86.2240   12.6485 C.3     1  UNL1        0.1740
     10 O          59.5139   88.7945   11.5272 O.2     1  UNL1       -0.2497
     11 C          60.1492   87.8817   10.5206 C.2     1  UNL1        0.3346
     12 N          59.5445   87.4483    9.2181 N.am    1  UNL1       -0.1628
     13 C          60.5224   86.5409    8.5322 C.2     1  UNL1        0.0912
     14 C          60.4680   85.8142    7.2212 C.3     1  UNL1        0.1696
     15 N          61.6227   84.9600    6.7887 N.2     1  UNL1       -0.2626
     16 C          62.8317   84.8326    7.6673 C.2     1  UNL1        0.0949
     17 C          62.8861   85.5593    8.9784 C.2     1  UNL1        0.0365
     18 C          61.7314   86.4134    9.4108 C.2     1  UNL1        0.0741
     19 N          61.5008   87.2421   10.6397 N.am    1  UNL1       -0.2220
     20 C          64.6313   90.2431   13.5021 C.ar    1  UNL1        0.0706
     21 C          65.2044   90.5334   14.8576 C.ar    1  UNL1        0.0083
     22 C          65.8161   91.8731   15.1421 C.ar    1  UNL1        0.0299
     23 C          65.8547   92.9227   14.0711 C.ar    1  UNL1        0.1424
     24 F          66.4664   94.2624   14.3557 F       1  UNL1       -0.2041
     25 C          65.2816   92.6324   12.7157 C.ar    1  UNL1        0.0594
     26 C          64.6699   91.2927   12.4312 C.ar    1  UNL1        0.1459
     27 F          64.0969   91.0025   11.0757 F       1  UNL1       -0.2040
@<TRIPOS>BOND
     1    10    11    2
     2    11    12    1
     3    12    13    2
     4    13    14    1
     5    14    15    1
     6    15    16    2
     7    16    17    1
     8    17    18    2
     9    18    19    1
    10    19     1    1
    11     1     2    2
    12     2     3    1
    13     3    20    1
    14    20    21   ar
    15    21    22   ar
    16    22    23   ar
    17    23    24    1
    18    23    25   ar
    19    25    26   ar
    20    26    27    1
    21     3     4    2
    22     4     5    1
    23     5     6    2
    24     6     7    1
    25     7     8    2
    26     8     9    1
    27    19    11   am
    28     9     1    1
    29    18    13    1
    30    26    20   ar
    31     9     5    1
@<TRIPOS>MOLECULE
*****
 27 31 0 0 0
SMALL
GASTEIGER

@<TRIPOS>ATOM
      1 C          63.8706   90.5973   12.2878 C.2     1  UNL1        0.0565
      2 C          64.5607   91.5200   11.3275 C.2     1  UNL1        0.0584
      3 C          65.3757   92.6681   11.8448 C.2     1  UNL1        0.1962
      4 N          65.5007   92.8935   13.3224 N.2     1  UNL1       -0.0378
      5 C          64.8107   91.9707   14.2828 C.2     1  UNL1        0.3605
      6 N          64.7523   91.9426   15.7814 N.2     1  UNL1       -0.0343
      7 C          63.9012   90.7771   16.1903 C.2     1  UNL1        0.2321
      8 C          63.4335   90.0849   14.9444 C.2     1  UNL1        0.0421
      9 C          63.9957   90.8226   13.7656 C.3     1  UNL1        0.1740
     10 O          61.6653   90.7386    9.8865 O.2     1  UNL1       -0.2497
     11 C          62.0419   89.5142   10.6668 C.2     1  UNL1        0.3346
     12 N          61.4710   88.1397   10.4803 N.am    1  UNL1       -0.1628
     13 C          62.1318   87.2252   11.4688 C.2     1  UNL1        0.0912
     14 C          61.9682   85.7601   11.7459 C.3     1  UNL1        0.1696
     15 N          62.7840   85.1044   12.8203 N.2     1  UNL1       -0.2626
     16 C          63.7634   85.9138   13.6177 C.2     1  UNL1        0.0949
     17 C          63.9269   87.3788   13.3407 C.2     1  UNL1        0.0365
     18 C          63.1111   88.0345   12.2662 C.2     1  UNL1        0.0741
     19 N          63.0556   89.4492   11.7705 N.am    1  UNL1       -0.2220
     20 C          66.0658   93.5908   10.8843 C.ar    1  UNL1        0.0706
     21 C          65.6247   95.0199   10.7690 C.ar    1  UNL1        0.0083
     22 C          66.3148   95.9426    9.8086 C.ar    1  UNL1        0.0299
     23 C          67.4459   95.4363    8.9635 C.ar    1  UNL1        0.1424
     24 F          68.1359   96.3590    8.0030 F       1  UNL1       -0.2041
     25 C          67.8869   94.0073    9.0788 C.ar    1  UNL1        0.0594
     26 C          67.1969   93.0845   10.0392 C.ar    1  UNL1        0.1459
     27 F          67.6380   91.6555   10.1545 F       1  UNL1       -0.2040
@<TRIPOS>BOND
     1    10    11    2
     2    11    12    1
     3    12    13    2
     4    13    14    1
     5    14    15    1
     6    15    16    2
     7    16    17    1
     8    17    18    2
     9    18    19    1
    10    19     1    1
    11     1     2    2
    12     2     3    1
    13     3    20    1
    14    20    21   ar
    15    21    22   ar
    16    22    23   ar
    17    23    24    1
    18    23    25   ar
    19    25    26   ar
    20    26    27    1
    21     3     4    2
    22     4     5    1
    23     5     6    2
    24     6     7    1
    25     7     8    2
    26     8     9    1
    27    19    11   am
    28     9     1    1
    29    18    13    1
    30    26    20   ar
    31     9     5    1
@<TRIPOS>MOLECULE
*****
 27 31 0 0 0
SMALL
GASTEIGER

@<TRIPOS>ATOM
      1 C          62.8336   84.6542   11.6930 C.2     1  UNL1        0.0565
      2 C          62.0262   85.3342   10.6274 C.2     1  UNL1        0.0584
      3 C          61.7986   86.8156   10.6894 C.2     1  UNL1        0.1962
      4 N          62.3785   87.6170   11.8169 N.2     1  UNL1       -0.0378
      5 C          63.1860   86.9370   12.8826 C.2     1  UNL1        0.3605
      6 N          63.8775   87.4614   14.1060 N.2     1  UNL1       -0.0343
      7 C          64.5325   86.3042   14.8002 C.2     1  UNL1        0.2321
      8 C          64.2457   85.0645   14.0058 C.2     1  UNL1        0.0421
      9 C          63.4136   85.4557   12.8207 C.3     1  UNL1        0.1740
     10 O          64.7251   83.0924    9.5406 O.2     1  UNL1       -0.2497
     11 C          63.9306   82.4550   10.6418 C.2     1  UNL1        0.3346
     12 N          63.8660   80.9878   10.9469 N.am    1  UNL1       -0.1628
     13 C          62.9567   80.7989   12.1248 C.2     1  UNL1        0.0912
     14 C          62.5173   79.5716   12.8669 C.3     1  UNL1        0.1696
     15 N          61.5806   79.6949   14.0319 N.2     1  UNL1       -0.2626
     16 C          61.0832   81.0453   14.4548 C.2     1  UNL1        0.0949
     17 C          61.5225   82.2726   13.7126 C.2     1  UNL1        0.0365
     18 C          62.4592   82.1494   12.5476 C.2     1  UNL1        0.0741
     19 N          63.0612   83.1729   11.6311 N.am    1  UNL1       -0.2220
     20 C          60.9911   87.4955    9.6237 C.ar    1  UNL1        0.0706
     21 C          60.1074   86.6864    8.7214 C.ar    1  UNL1        0.0083
     22 C          59.2999   87.3664    7.6557 C.ar    1  UNL1        0.0299
     23 C          59.3761   88.8555    7.4924 C.ar    1  UNL1        0.1424
     24 F          58.5686   89.5355    6.4268 F       1  UNL1       -0.2041
     25 C          60.2598   89.6646    8.3948 C.ar    1  UNL1        0.0594
     26 C          61.0673   88.9847    9.4604 C.ar    1  UNL1        0.1459
     27 F          61.9511   89.7938   10.3627 F       1  UNL1       -0.2040
@<TRIPOS>BOND
     1    10    11    2
     2    11    12    1
     3    12    13    2
     4    13    14    1
     5    14    15    1
     6    15    16    2
     7    16    17    1
     8    17    18    2
     9    18    19    1
    10    19     1    1
    11     1     2    2
    12     2     3    1
    13     3    20    1
    14    20    21   ar
    15    21    22   ar
    16    22    23   ar
    17    23    24    1
    18    23    25   ar
    19    25    26   ar
    20    26    27    1
    21     3     4    2
    22     4     5    1
    23     5     6    2
    24     6     7    1
    25     7     8    2
    26     8     9    1
    27    19    11   am
    28     9     1    1
    29    18    13    1
    30    26    20   ar
    31     9     5    1
