@<TRIPOS>MOLECULE
*****
 33 37 0 0 0
SMALL
GASTEIGER

@<TRIPOS>ATOM
      1 C          63.0104   90.9127   11.6121 C.3     1  UNL1        0.0749
      2 C          64.1984   91.8283   11.6288 C.3     1  UNL1        0.0444
      3 C          65.0343   91.9498   12.8683 C.ar    1  UNL1       -0.0101
      4 C          64.6822   91.1556   14.0911 C.ar    1  UNL1       -0.0091
      5 C          65.5183   91.2771   15.3307 C.ar    1  UNL1       -0.0032
      6 C          66.7062   92.1927   15.3473 C.ar    1  UNL1        0.0010
      7 C          67.0583   92.9868   14.1244 C.ar    1  UNL1        0.0142
      8 C          66.2224   92.8654   12.8849 C.ar    1  UNL1        0.0436
      9 C          63.4942   90.2400   14.0745 C.3     1  UNL1        0.0954
     10 N          62.6583   90.1186   12.8350 N.3     1  UNL1       -0.2934
     11 H          61.7077   90.3826   13.0939 H       1  UNL1        0.1236
     12 N          66.5744   93.6596   11.6621 N.pl3   1  UNL1       -0.3077
     13 C          67.2773   92.9972   10.5143 C.3     1  UNL1        0.0921
     14 C          67.6294   93.7914    9.2915 C.3     1  UNL1        0.0369
     15 C          67.2785   95.2479    9.2164 C.3     1  UNL1        0.0542
     16 N          67.6306   96.0420    7.9935 N.3     1  UNL1       -0.3221
     17 C          66.5756   95.9101   10.3641 C.3     1  UNL1        0.0369
     18 C          66.2236   95.1160   11.5870 C.3     1  UNL1        0.0921
     19 H          68.1004   95.4378    7.3193 H       1  UNL1        0.1188
     20 H          68.2511   96.8088    8.2531 H       1  UNL1        0.1188
     21 C          62.1743   90.7913   10.3726 C.3     1  UNL1        0.0886
     22 C          59.7189   90.6282   11.2058 C.3     1  UNL1        0.0899
     23 N          60.8644   90.0622   10.4199 N.3     1  UNL1       -0.2667
     24 C          60.6998   88.7670    9.6814 C.3     1  UNL1        0.0978
     25 C          59.9012   88.7234    8.4125 C.3     1  UNL1        0.0224
     26 C          59.7366   87.4282    7.6740 C.3     1  UNL1        0.0065
     27 C          60.3706   86.1765    8.2045 C.3     1  UNL1        0.0277
     28 C          61.1692   86.2201    9.4735 C.ar    1  UNL1       -0.0073
     29 C          61.8032   84.9685   10.0040 C.ar    1  UNL1       -0.0015
     30 C          62.6018   85.0121   11.2729 C.ar    1  UNL1        0.0203
     31 C          62.7664   86.3073   12.0114 C.ar    1  UNL1        0.0985
     32 N          62.1324   87.5589   11.4809 N.ar    1  UNL1       -0.2471
     33 C          61.3338   87.5153   10.2120 C.ar    1  UNL1        0.0695
@<TRIPOS>BOND
     1    22    23    1
     2    23    21    1
     3     1    21    1
     4     1     2    1
     5     2     3    1
     6     3     4   ar
     7     4     5   ar
     8     5     6   ar
     9     6     7   ar
    10     7     8   ar
    11     8    12    1
    12    12    13    1
    13    13    14    1
    14    14    15    1
    15    15    16    1
    16    15    17    1
    17    17    18    1
    18     4     9    1
    19     9    10    1
    20    24    23    1
    21    24    25    1
    22    25    26    1
    23    26    27    1
    24    27    28    1
    25    28    29   ar
    26    29    30   ar
    27    30    31   ar
    28    31    32   ar
    29    32    33   ar
    30    10     1    1
    31    33    24    1
    32     8     3   ar
    33    18    12    1
    34    33    28   ar
    35    16    19    1
    36    16    20    1
    37    10    11    1
@<TRIPOS>MOLECULE
*****
 33 37 0 0 0
SMALL
GASTEIGER

@<TRIPOS>ATOM
      1 C          61.1387   87.0369   10.4774 C.3     1  UNL1        0.0749
      2 C          61.8574   86.3255   11.5852 C.3     1  UNL1        0.0444
      3 C          62.7795   85.1851   11.2702 C.ar    1  UNL1       -0.0101
      4 C          62.9828   84.7561    9.8473 C.ar    1  UNL1       -0.0091
      5 C          63.9049   83.6156    9.5322 C.ar    1  UNL1       -0.0032
      6 C          64.6236   82.9043   10.6401 C.ar    1  UNL1        0.0010
      7 C          64.4203   83.3333   12.0630 C.ar    1  UNL1        0.0142
      8 C          63.4983   84.4737   12.3780 C.ar    1  UNL1        0.0436
      9 C          62.2640   85.4675    8.7395 C.3     1  UNL1        0.0954
     10 N          61.3420   86.6078    9.0545 N.3     1  UNL1       -0.2934
     11 H          60.4240   86.3538    8.6896 H       1  UNL1        0.1236
     12 N          63.2950   84.9027   13.8009 N.pl3   1  UNL1       -0.3077
     13 C          64.1145   86.0223   14.3711 C.3     1  UNL1        0.0921
     14 C          63.9112   86.4513   15.7939 C.3     1  UNL1        0.0369
     15 C          62.8884   85.7607   16.6467 C.3     1  UNL1        0.0542
     16 N          62.6851   86.1898   18.0696 N.3     1  UNL1       -0.3221
     17 C          62.0690   84.6412   16.0765 C.3     1  UNL1        0.0369
     18 C          62.2723   84.2122   14.6536 C.3     1  UNL1        0.0921
     19 H          63.3209   86.9570   18.2875 H       1  UNL1        0.1188
     20 H          62.8744   85.4041   18.6919 H       1  UNL1        0.1188
     21 C          60.2166   88.1773   10.7924 C.3     1  UNL1        0.0886
     22 C          59.7963   89.4373   13.0254 C.3     1  UNL1        0.0899
     23 N          60.6243   89.2167   11.7941 N.3     1  UNL1       -0.2667
     24 C          61.8599   90.0356   11.5646 C.3     1  UNL1        0.0978
     25 C          62.1467   90.5949   10.2026 C.3     1  UNL1        0.0224
     26 C          63.3823   91.4138    9.9731 C.3     1  UNL1        0.0065
     27 C          64.3311   91.6734   11.1055 C.3     1  UNL1        0.0277
     28 C          64.0444   91.1140   12.4675 C.ar    1  UNL1       -0.0073
     29 C          64.9932   91.3736   13.5999 C.ar    1  UNL1       -0.0015
     30 C          64.7064   90.8143   14.9618 C.ar    1  UNL1        0.0203
     31 C          63.4708   89.9954   15.1913 C.ar    1  UNL1        0.0985
     32 N          62.5219   89.7358   14.0589 N.ar    1  UNL1       -0.2471
     33 C          62.8088   90.2952   12.6970 C.ar    1  UNL1        0.0695
@<TRIPOS>BOND
     1    22    23    1
     2    23    21    1
     3     1    21    1
     4     1     2    1
     5     2     3    1
     6     3     4   ar
     7     4     5   ar
     8     5     6   ar
     9     6     7   ar
    10     7     8   ar
    11     8    12    1
    12    12    13    1
    13    13    14    1
    14    14    15    1
    15    15    16    1
    16    15    17    1
    17    17    18    1
    18     4     9    1
    19     9    10    1
    20    24    23    1
    21    24    25    1
    22    25    26    1
    23    26    27    1
    24    27    28    1
    25    28    29   ar
    26    29    30   ar
    27    30    31   ar
    28    31    32   ar
    29    32    33   ar
    30    10     1    1
    31    33    24    1
    32     8     3   ar
    33    18    12    1
    34    33    28   ar
    35    16    19    1
    36    16    20    1
    37    10    11    1
@<TRIPOS>MOLECULE
*****
 33 37 0 0 0
SMALL
GASTEIGER

@<TRIPOS>ATOM
      1 C          61.5474   89.2217   10.9265 C.3     1  UNL1        0.0749
      2 C          62.3457   89.2405   12.1962 C.3     1  UNL1        0.0444
      3 C          63.4642   90.2258   12.3643 C.ar    1  UNL1       -0.0101
      4 C          63.7843   91.1922   11.2627 C.ar    1  UNL1       -0.0091
      5 C          64.9028   92.1775   11.4308 C.ar    1  UNL1       -0.0032
      6 C          65.7012   92.1963   12.7005 C.ar    1  UNL1        0.0010
      7 C          65.3811   91.2299   13.8022 C.ar    1  UNL1        0.0142
      8 C          64.2626   90.2446   13.6341 C.ar    1  UNL1        0.0436
      9 C          62.9859   91.1734    9.9930 C.3     1  UNL1        0.0954
     10 N          61.8675   90.1881    9.8249 N.3     1  UNL1       -0.2934
     11 H          62.0874   89.6311    8.9992 H       1  UNL1        0.1236
     12 N          63.9425   89.2782   14.7357 N.pl3   1  UNL1       -0.3077
     13 C          63.2460   89.7573   15.9748 C.3     1  UNL1        0.0921
     14 C          62.9259   88.7909   17.0764 C.3     1  UNL1        0.0369
     15 C          63.3023   87.3454   16.9389 C.3     1  UNL1        0.0542
     16 N          62.9823   86.3790   18.0406 N.3     1  UNL1       -0.3221
     17 C          63.9989   86.8664   15.6999 C.3     1  UNL1        0.0369
     18 C          64.3190   87.8328   14.5983 C.3     1  UNL1        0.0921
     19 H          62.5125   86.8723   18.7998 H       1  UNL1        0.1188
     20 H          63.8456   85.9622   18.3888 H       1  UNL1        0.1188
     21 C          60.4289   88.2364   10.7584 C.3     1  UNL1        0.0886
     22 C          59.2591   87.5629    8.5384 C.3     1  UNL1        0.0899
     23 N          60.3667   87.3744    9.5324 N.3     1  UNL1       -0.2667
     24 C          61.4119   86.3239    9.3003 C.3     1  UNL1        0.0978
     25 C          61.8515   85.9990    7.9035 C.3     1  UNL1        0.0224
     26 C          62.8968   84.9485    7.6714 C.3     1  UNL1        0.0065
     27 C          63.5025   84.2229    8.8361 C.3     1  UNL1        0.0277
     28 C          63.0629   84.5479   10.2330 C.ar    1  UNL1       -0.0073
     29 C          63.6686   83.8223   11.3978 C.ar    1  UNL1       -0.0015
     30 C          63.2291   84.1473   12.7946 C.ar    1  UNL1        0.0203
     31 C          62.1838   85.1978   13.0267 C.ar    1  UNL1        0.0985
     32 N          61.5781   85.9233   11.8619 N.ar    1  UNL1       -0.2471
     33 C          62.0177   85.5984   10.4651 C.ar    1  UNL1        0.0695
@<TRIPOS>BOND
     1    22    23    1
     2    23    21    1
     3     1    21    1
     4     1     2    1
     5     2     3    1
     6     3     4   ar
     7     4     5   ar
     8     5     6   ar
     9     6     7   ar
    10     7     8   ar
    11     8    12    1
    12    12    13    1
    13    13    14    1
    14    14    15    1
    15    15    16    1
    16    15    17    1
    17    17    18    1
    18     4     9    1
    19     9    10    1
    20    24    23    1
    21    24    25    1
    22    25    26    1
    23    26    27    1
    24    27    28    1
    25    28    29   ar
    26    29    30   ar
    27    30    31   ar
    28    31    32   ar
    29    32    33   ar
    30    10     1    1
    31    33    24    1
    32     8     3   ar
    33    18    12    1
    34    33    28   ar
    35    16    19    1
    36    16    20    1
    37    10    11    1
@<TRIPOS>MOLECULE
*****
 33 37 0 0 0
SMALL
GASTEIGER

@<TRIPOS>ATOM
      1 C          63.0858   90.8315   12.5168 C.3     1  UNL1        0.0749
      2 C          64.2600   91.7459   12.3297 C.3     1  UNL1        0.0444
      3 C          65.1590   92.0589   13.4889 C.ar    1  UNL1       -0.0101
      4 C          64.8838   91.4575   14.8352 C.ar    1  UNL1       -0.0091
      5 C          65.7828   91.7705   15.9944 C.ar    1  UNL1       -0.0032
      6 C          66.9570   92.6849   15.8073 C.ar    1  UNL1        0.0010
      7 C          67.2322   93.2863   14.4610 C.ar    1  UNL1        0.0142
      8 C          66.3332   92.9734   13.3018 C.ar    1  UNL1        0.0436
      9 C          63.7096   90.5430   15.0223 C.3     1  UNL1        0.0954
     10 N          62.8106   90.2301   13.8631 N.3     1  UNL1       -0.2934
     11 H          61.8715   90.5247   14.1308 H       1  UNL1        0.1236
     12 N          66.6084   93.5748   11.9555 N.pl3   1  UNL1       -0.3077
     13 C          66.2461   95.0050   11.6847 C.3     1  UNL1        0.0921
     14 C          66.5213   95.6064   10.3384 C.3     1  UNL1        0.0369
     15 C          67.1588   94.7776    9.2628 C.3     1  UNL1        0.0542
     16 N          67.4340   95.3790    7.9165 N.3     1  UNL1       -0.3221
     17 C          67.5211   93.3475    9.5337 C.3     1  UNL1        0.0369
     18 C          67.2459   92.7460   10.8800 C.3     1  UNL1        0.0921
     19 H          67.1263   96.3515    7.9092 H       1  UNL1        0.1188
     20 H          66.9281   94.8570    7.2011 H       1  UNL1        0.1188
     21 C          62.1867   90.5184   11.3575 C.3     1  UNL1        0.0886
     22 C          59.8416   89.7464   12.1667 C.3     1  UNL1        0.0899
     23 N          61.1440   89.4477   11.4849 N.3     1  UNL1       -0.2667
     24 C          61.4035   88.0783   10.9305 C.3     1  UNL1        0.0978
     25 C          62.3218   87.1382   11.6535 C.3     1  UNL1        0.0224
     26 C          62.5814   85.7687   11.0991 C.3     1  UNL1        0.0065
     27 C          61.9226   85.3395    9.8217 C.3     1  UNL1        0.0277
     28 C          61.0042   86.2797    9.0987 C.ar    1  UNL1       -0.0073
     29 C          60.3454   85.8504    7.8213 C.ar    1  UNL1       -0.0015
     30 C          59.4271   86.7906    7.0984 C.ar    1  UNL1        0.0203
     31 C          59.1675   88.1600    7.6528 C.ar    1  UNL1        0.0985
     32 N          59.8263   88.5892    8.9301 N.ar    1  UNL1       -0.2471
     33 C          60.7447   87.6491    9.6531 C.ar    1  UNL1        0.0695
@<TRIPOS>BOND
     1    22    23    1
     2    23    21    1
     3     1    21    1
     4     1     2    1
     5     2     3    1
     6     3     4   ar
     7     4     5   ar
     8     5     6   ar
     9     6     7   ar
    10     7     8   ar
    11     8    12    1
    12    12    13    1
    13    13    14    1
    14    14    15    1
    15    15    16    1
    16    15    17    1
    17    17    18    1
    18     4     9    1
    19     9    10    1
    20    24    23    1
    21    24    25    1
    22    25    26    1
    23    26    27    1
    24    27    28    1
    25    28    29   ar
    26    29    30   ar
    27    30    31   ar
    28    31    32   ar
    29    32    33   ar
    30    10     1    1
    31    33    24    1
    32     8     3   ar
    33    18    12    1
    34    33    28   ar
    35    16    19    1
    36    16    20    1
    37    10    11    1
@<TRIPOS>MOLECULE
*****
 33 37 0 0 0
SMALL
GASTEIGER

@<TRIPOS>ATOM
      1 C          63.8776   91.6569   10.9204 C.3     1  UNL1        0.0749
      2 C          64.1273   91.2125   12.3310 C.3     1  UNL1        0.0444
      3 C          65.1138   91.9507   13.1864 C.ar    1  UNL1       -0.0101
      4 C          65.8506   93.1335   12.6312 C.ar    1  UNL1       -0.0091
      5 C          66.8371   93.8717   13.4867 C.ar    1  UNL1       -0.0032
      6 C          67.0868   93.4273   14.8973 C.ar    1  UNL1        0.0010
      7 C          66.3501   92.2445   15.4526 C.ar    1  UNL1        0.0142
      8 C          65.3636   91.5063   14.5972 C.ar    1  UNL1        0.0436
      9 C          65.6008   93.5779   11.2205 C.3     1  UNL1        0.0954
     10 N          64.6144   92.8397   10.3651 N.3     1  UNL1       -0.2934
     11 H          65.1240   92.5107    9.5450 H       1  UNL1        0.1236
     12 N          64.6268   90.3235   15.1525 N.pl3   1  UNL1       -0.3077
     13 C          64.8304   88.9639   14.5524 C.3     1  UNL1        0.0921
     14 C          64.0936   87.7811   15.1077 C.3     1  UNL1        0.0369
     15 C          63.1533   87.9581   16.2630 C.3     1  UNL1        0.0542
     16 N          62.4166   86.7753   16.8183 N.3     1  UNL1       -0.3221
     17 C          62.9499   89.3177   16.8630 C.3     1  UNL1        0.0369
     18 C          63.6866   90.5004   16.3077 C.3     1  UNL1        0.0921
     19 H          62.6729   85.9385   16.2944 H       1  UNL1        0.1188
     20 H          61.4119   86.9322   16.7380 H       1  UNL1        0.1188
     21 C          62.8911   90.9186   10.0649 C.3     1  UNL1        0.0886
     22 C          60.7351   90.8322   11.5121 C.3     1  UNL1        0.0899
     23 N          61.7862   90.1307   10.7039 N.3     1  UNL1       -0.2667
     24 C          61.7323   88.6413   10.5347 C.3     1  UNL1        0.0978
     25 C          62.5153   87.7530   11.4555 C.3     1  UNL1        0.0224
     26 C          62.4614   86.2636   11.2864 C.3     1  UNL1        0.0065
     27 C          61.6246   85.6623   10.1963 C.3     1  UNL1        0.0277
     28 C          60.8416   86.5506    9.2754 C.ar    1  UNL1       -0.0073
     29 C          60.0047   85.9494    8.1854 C.ar    1  UNL1       -0.0015
     30 C          59.2218   86.8376    7.2646 C.ar    1  UNL1        0.0203
     31 C          59.2756   88.3270    7.4338 C.ar    1  UNL1        0.0985
     32 N          60.1125   88.9283    8.5238 N.ar    1  UNL1       -0.2471
     33 C          60.8954   88.0400    9.4446 C.ar    1  UNL1        0.0695
@<TRIPOS>BOND
     1    22    23    1
     2    23    21    1
     3     1    21    1
     4     1     2    1
     5     2     3    1
     6     3     4   ar
     7     4     5   ar
     8     5     6   ar
     9     6     7   ar
    10     7     8   ar
    11     8    12    1
    12    12    13    1
    13    13    14    1
    14    14    15    1
    15    15    16    1
    16    15    17    1
    17    17    18    1
    18     4     9    1
    19     9    10    1
    20    24    23    1
    21    24    25    1
    22    25    26    1
    23    26    27    1
    24    27    28    1
    25    28    29   ar
    26    29    30   ar
    27    30    31   ar
    28    31    32   ar
    29    32    33   ar
    30    10     1    1
    31    33    24    1
    32     8     3   ar
    33    18    12    1
    34    33    28   ar
    35    16    19    1
    36    16    20    1
    37    10    11    1
@<TRIPOS>MOLECULE
*****
 33 37 0 0 0
SMALL
GASTEIGER

@<TRIPOS>ATOM
      1 C          64.4267   86.6595   14.5373 C.3     1  UNL1        0.0749
      2 C          63.6036   86.3508   13.3219 C.3     1  UNL1        0.0444
      3 C          63.3533   84.9253   12.9280 C.ar    1  UNL1       -0.0101
      4 C          63.9262   83.8085   13.7494 C.ar    1  UNL1       -0.0091
      5 C          63.6758   82.3829   13.3554 C.ar    1  UNL1       -0.0032
      6 C          62.8527   82.0742   12.1400 C.ar    1  UNL1        0.0010
      7 C          62.2799   83.1910   11.3186 C.ar    1  UNL1        0.0142
      8 C          62.5302   84.6165   11.7126 C.ar    1  UNL1        0.0436
      9 C          64.7493   84.1172   14.9647 C.3     1  UNL1        0.0954
     10 N          64.9996   85.5427   15.3587 N.3     1  UNL1       -0.2934
     11 H          66.0112   85.6725   15.3674 H       1  UNL1        0.1236
     12 N          61.9574   85.7332   10.8912 N.pl3   1  UNL1       -0.3077
     13 C          62.3982   85.9212    9.4698 C.3     1  UNL1        0.0921
     14 C          61.8254   87.0380    8.6484 C.3     1  UNL1        0.0369
     15 C          60.8117   87.9668    9.2484 C.3     1  UNL1        0.0542
     16 N          60.2389   89.0835    8.4270 N.3     1  UNL1       -0.3221
     17 C          60.3709   87.7787   10.6697 C.3     1  UNL1        0.0369
     18 C          60.9437   86.6620   11.4911 C.3     1  UNL1        0.0921
     19 H          60.6474   89.0625    7.4926 H       1  UNL1        0.1188
     20 H          60.4523   89.9765    8.8714 H       1  UNL1        0.1188
     21 C          64.6771   88.0851   14.9313 C.3     1  UNL1        0.0886
     22 C          62.5026   89.3596   15.5615 C.3     1  UNL1        0.0899
     23 N          63.6539   89.1384   14.6257 N.3     1  UNL1       -0.2667
     24 C          63.7818   89.9705   13.3842 C.3     1  UNL1        0.0978
     25 C          63.0074   89.6045   12.1529 C.3     1  UNL1        0.0224
     26 C          63.1354   90.4367   10.9114 C.3     1  UNL1        0.0065
     27 C          64.0378   91.6348   10.9013 C.3     1  UNL1        0.0277
     28 C          64.8123   92.0008   12.1327 C.ar    1  UNL1       -0.0073
     29 C          65.7147   93.1989   12.1226 C.ar    1  UNL1       -0.0015
     30 C          66.4891   93.5649   13.3540 C.ar    1  UNL1        0.0203
     31 C          66.3611   92.7328   14.5954 C.ar    1  UNL1        0.0985
     32 N          65.4587   91.5347   14.6055 N.ar    1  UNL1       -0.2471
     33 C          64.6843   91.1687   13.3742 C.ar    1  UNL1        0.0695
@<TRIPOS>BOND
     1    22    23    1
     2    23    21    1
     3     1    21    1
     4     1     2    1
     5     2     3    1
     6     3     4   ar
     7     4     5   ar
     8     5     6   ar
     9     6     7   ar
    10     7     8   ar
    11     8    12    1
    12    12    13    1
    13    13    14    1
    14    14    15    1
    15    15    16    1
    16    15    17    1
    17    17    18    1
    18     4     9    1
    19     9    10    1
    20    24    23    1
    21    24    25    1
    22    25    26    1
    23    26    27    1
    24    27    28    1
    25    28    29   ar
    26    29    30   ar
    27    30    31   ar
    28    31    32   ar
    29    32    33   ar
    30    10     1    1
    31    33    24    1
    32     8     3   ar
    33    18    12    1
    34    33    28   ar
    35    16    19    1
    36    16    20    1
    37    10    11    1
@<TRIPOS>MOLECULE
*****
 33 37 0 0 0
SMALL
GASTEIGER

@<TRIPOS>ATOM
      1 C          62.0336   87.4255   10.5250 C.3     1  UNL1        0.0749
      2 C          62.4521   86.5521   11.6704 C.3     1  UNL1        0.0444
      3 C          63.0279   85.1927   11.4055 C.ar    1  UNL1       -0.0101
      4 C          63.1851   84.7065    9.9952 C.ar    1  UNL1       -0.0091
      5 C          63.7609   83.3470    9.7303 C.ar    1  UNL1       -0.0032
      6 C          64.1795   82.4736   10.8757 C.ar    1  UNL1        0.0010
      7 C          64.0223   82.9597   12.2860 C.ar    1  UNL1        0.0142
      8 C          63.4465   84.3192   12.5509 C.ar    1  UNL1        0.0436
      9 C          62.7666   85.5799    8.8498 C.3     1  UNL1        0.0954
     10 N          62.1908   86.9394    9.1147 N.3     1  UNL1       -0.2934
     11 H          61.2620   86.9530    8.6933 H       1  UNL1        0.1236
     12 N          63.2893   84.8053   13.9612 N.pl3   1  UNL1       -0.3077
     13 C          64.1836   85.8899   14.4848 C.3     1  UNL1        0.0921
     14 C          64.0264   86.3761   15.8951 C.3     1  UNL1        0.0369
     15 C          62.9749   85.7775   16.7819 C.3     1  UNL1        0.0542
     16 N          62.8177   86.2637   18.1922 N.3     1  UNL1       -0.3221
     17 C          62.0807   84.6930   16.2583 C.3     1  UNL1        0.0369
     18 C          62.2379   84.2069   14.8480 C.3     1  UNL1        0.0921
     19 H          63.5022   86.9968   18.3774 H       1  UNL1        0.1188
     20 H          62.9670   85.4882   18.8377 H       1  UNL1        0.1188
     21 C          61.4578   88.7851   10.7899 C.3     1  UNL1        0.0886
     22 C          62.4553   90.8828    9.6260 C.3     1  UNL1        0.0899
     23 N          62.3557   89.9861   10.8244 N.3     1  UNL1       -0.2667
     24 C          63.1539   90.2906   12.0573 C.3     1  UNL1        0.0978
     25 C          62.8827   89.5441   13.3297 C.3     1  UNL1        0.0224
     26 C          63.6810   89.8486   14.5626 C.3     1  UNL1        0.0065
     27 C          64.7505   90.8995   14.5231 C.3     1  UNL1        0.0277
     28 C          65.0218   91.6461   13.2506 C.ar    1  UNL1       -0.0073
     29 C          66.0913   92.6970   13.2111 C.ar    1  UNL1       -0.0015
     30 C          66.3625   93.4435   11.9386 C.ar    1  UNL1        0.0203
     31 C          65.5642   93.1390   10.7057 C.ar    1  UNL1        0.0985
     32 N          64.4947   92.0881   10.7453 N.ar    1  UNL1       -0.2471
     33 C          64.2235   91.3416   12.0177 C.ar    1  UNL1        0.0695
@<TRIPOS>BOND
     1    22    23    1
     2    23    21    1
     3     1    21    1
     4     1     2    1
     5     2     3    1
     6     3     4   ar
     7     4     5   ar
     8     5     6   ar
     9     6     7   ar
    10     7     8   ar
    11     8    12    1
    12    12    13    1
    13    13    14    1
    14    14    15    1
    15    15    16    1
    16    15    17    1
    17    17    18    1
    18     4     9    1
    19     9    10    1
    20    24    23    1
    21    24    25    1
    22    25    26    1
    23    26    27    1
    24    27    28    1
    25    28    29   ar
    26    29    30   ar
    27    30    31   ar
    28    31    32   ar
    29    32    33   ar
    30    10     1    1
    31    33    24    1
    32     8     3   ar
    33    18    12    1
    34    33    28   ar
    35    16    19    1
    36    16    20    1
    37    10    11    1
@<TRIPOS>MOLECULE
*****
 33 37 0 0 0
SMALL
GASTEIGER

@<TRIPOS>ATOM
      1 C          62.9648   91.1974   10.9744 C.3     1  UNL1        0.0749
      2 C          63.4794   90.7206   12.3002 C.3     1  UNL1        0.0444
      3 C          64.7942   91.2228   12.8190 C.ar    1  UNL1       -0.0101
      4 C          65.5943   92.2019   12.0120 C.ar    1  UNL1       -0.0091
      5 C          66.9091   92.7041   12.5308 C.ar    1  UNL1       -0.0032
      6 C          67.4237   92.2273   13.8566 C.ar    1  UNL1        0.0010
      7 C          66.6236   91.2482   14.6636 C.ar    1  UNL1        0.0142
      8 C          65.3088   90.7460   14.1448 C.ar    1  UNL1        0.0436
      9 C          65.0797   92.6787   10.6862 C.3     1  UNL1        0.0954
     10 N          63.7650   92.1764   10.1674 N.3     1  UNL1       -0.2934
     11 H          63.9533   91.7327    9.2684 H       1  UNL1        0.1236
     12 N          64.5087   89.7670   14.9518 N.pl3   1  UNL1       -0.3077
     13 C          64.6536   88.2947   14.7035 C.3     1  UNL1        0.0921
     14 C          63.8535   87.3157   15.5105 C.3     1  UNL1        0.0369
     15 C          62.9085   87.8089   16.5659 C.3     1  UNL1        0.0542
     16 N          62.1083   86.8298   17.3729 N.3     1  UNL1       -0.3221
     17 C          62.7636   89.2810   16.8142 C.3     1  UNL1        0.0369
     18 C          63.5637   90.2601   16.0072 C.3     1  UNL1        0.0921
     19 H          62.3304   85.8804   17.0732 H       1  UNL1        0.1188
     20 H          61.1135   87.0066   17.2330 H       1  UNL1        0.1188
     21 C          61.6500   90.6951   10.4555 C.3     1  UNL1        0.0886
     22 C          60.4604   89.4435   12.3967 C.3     1  UNL1        0.0899
     23 N          61.0518   89.4400   11.0182 N.3     1  UNL1       -0.2667
     24 C          61.0449   88.1813   10.2023 C.3     1  UNL1        0.0978
     25 C          60.3403   88.1494    8.8786 C.3     1  UNL1        0.0224
     26 C          60.3334   86.8906    8.0627 C.3     1  UNL1        0.0065
     27 C          61.0311   85.6638    8.5707 C.3     1  UNL1        0.0277
     28 C          61.7358   85.6957    9.8945 C.ar    1  UNL1       -0.0073
     29 C          62.4335   84.4689   10.4025 C.ar    1  UNL1       -0.0015
     30 C          63.1382   84.5008   11.7262 C.ar    1  UNL1        0.0203
     31 C          63.1451   85.7595   12.5421 C.ar    1  UNL1        0.0985
     32 N          62.4473   86.9863   12.0341 N.ar    1  UNL1       -0.2471
     33 C          61.7427   86.9544   10.7103 C.ar    1  UNL1        0.0695
@<TRIPOS>BOND
     1    22    23    1
     2    23    21    1
     3     1    21    1
     4     1     2    1
     5     2     3    1
     6     3     4   ar
     7     4     5   ar
     8     5     6   ar
     9     6     7   ar
    10     7     8   ar
    11     8    12    1
    12    12    13    1
    13    13    14    1
    14    14    15    1
    15    15    16    1
    16    15    17    1
    17    17    18    1
    18     4     9    1
    19     9    10    1
    20    24    23    1
    21    24    25    1
    22    25    26    1
    23    26    27    1
    24    27    28    1
    25    28    29   ar
    26    29    30   ar
    27    30    31   ar
    28    31    32   ar
    29    32    33   ar
    30    10     1    1
    31    33    24    1
    32     8     3   ar
    33    18    12    1
    34    33    28   ar
    35    16    19    1
    36    16    20    1
    37    10    11    1
@<TRIPOS>MOLECULE
*****
 33 37 0 0 0
SMALL
GASTEIGER

@<TRIPOS>ATOM
      1 C          63.0748   90.4137   12.3376 C.3     1  UNL1        0.0749
      2 C          64.2043   91.3905   12.1968 C.3     1  UNL1        0.0444
      3 C          64.9629   91.8399   13.4103 C.ar    1  UNL1       -0.0101
      4 C          64.5918   91.3125   14.7646 C.ar    1  UNL1       -0.0091
      5 C          65.3504   91.7620   15.9782 C.ar    1  UNL1       -0.0032
      6 C          66.4800   92.7388   15.8374 C.ar    1  UNL1        0.0010
      7 C          66.8510   93.2661   14.4830 C.ar    1  UNL1        0.0142
      8 C          66.0925   92.8167   13.2695 C.ar    1  UNL1        0.0436
      9 C          63.4622   90.3357   14.9055 C.3     1  UNL1        0.0954
     10 N          62.7037   89.8863   13.6920 N.3     1  UNL1       -0.2934
     11 H          61.7266   90.1343   13.8469 H       1  UNL1        0.1236
     12 N          66.4636   93.3441   11.9152 N.pl3   1  UNL1       -0.3077
     13 C          66.0688   94.7358   11.5183 C.3     1  UNL1        0.0921
     14 C          66.4398   95.2632   10.1640 C.3     1  UNL1        0.0369
     15 C          67.2057   94.3989    9.2066 C.3     1  UNL1        0.0542
     16 N          67.5767   94.9263    7.8523 N.3     1  UNL1       -0.3221
     17 C          67.6004   93.0073    9.6035 C.3     1  UNL1        0.0369
     18 C          67.2293   92.4799   10.9578 C.3     1  UNL1        0.0921
     19 H          67.2312   95.8809    7.7528 H       1  UNL1        0.1188
     20 H          67.1595   94.3369    7.1319 H       1  UNL1        0.1188
     21 C          62.3162   89.9642   11.1241 C.3     1  UNL1        0.0886
     22 C          62.7723   87.4835   11.7470 C.3     1  UNL1        0.0899
     23 N          62.0984   88.5012   10.8750 N.3     1  UNL1       -0.2667
     24 C          61.2067   88.0558    9.7541 C.3     1  UNL1        0.0978
     25 C          59.9286   88.7898    9.4755 C.3     1  UNL1        0.0224
     26 C          59.0369   88.3444    8.3546 C.3     1  UNL1        0.0065
     27 C          59.4234   87.1650    7.5122 C.3     1  UNL1        0.0277
     28 C          60.7015   86.4310    7.7907 C.ar    1  UNL1       -0.0073
     29 C          61.0880   85.2516    6.9483 C.ar    1  UNL1       -0.0015
     30 C          62.3661   84.5176    7.2269 C.ar    1  UNL1        0.0203
     31 C          63.2578   84.9630    8.3478 C.ar    1  UNL1        0.0985
     32 N          62.8713   86.1424    9.1902 N.ar    1  UNL1       -0.2471
     33 C          61.5932   86.8763    8.9117 C.ar    1  UNL1        0.0695
@<TRIPOS>BOND
     1    22    23    1
     2    23    21    1
     3     1    21    1
     4     1     2    1
     5     2     3    1
     6     3     4   ar
     7     4     5   ar
     8     5     6   ar
     9     6     7   ar
    10     7     8   ar
    11     8    12    1
    12    12    13    1
    13    13    14    1
    14    14    15    1
    15    15    16    1
    16    15    17    1
    17    17    18    1
    18     4     9    1
    19     9    10    1
    20    24    23    1
    21    24    25    1
    22    25    26    1
    23    26    27    1
    24    27    28    1
    25    28    29   ar
    26    29    30   ar
    27    30    31   ar
    28    31    32   ar
    29    32    33   ar
    30    10     1    1
    31    33    24    1
    32     8     3   ar
    33    18    12    1
    34    33    28   ar
    35    16    19    1
    36    16    20    1
    37    10    11    1
