@<TRIPOS>MOLECULE
*****
 57 62 0 0 0
SMALL
GASTEIGER

@<TRIPOS>ATOM
      1 N          62.6369   85.2884    9.2130 N.am    1  UNL1       -0.2770
      2 C          61.6858   86.2697    9.8316 C.2     1  UNL1        0.2270
      3 O          61.7807   86.5856   11.2949 O.2     1  UNL1       -0.2748
      4 C          60.6399   86.9349    8.9870 C.3     1  UNL1        0.0964
      5 C          59.7722   86.1121    8.0815 C.3     1  UNL1        0.0780
      6 N          58.7263   86.7773    7.2368 N.3     1  UNL1       -0.2970
      7 C          58.5481   88.2654    7.2976 C.3     1  UNL1        0.0689
      8 C          59.4158   89.0884    8.2031 C.3     1  UNL1        0.0220
      9 C          60.4617   88.4231    9.0478 C.3     1  UNL1        0.0337
     10 H          57.8311   86.3628    7.4959 H       1  UNL1        0.1233
     11 C          61.3295   89.2460    9.9533 C.ar    1  UNL1       -0.0217
     12 C          62.5550   89.9189    9.4098 C.ar    1  UNL1       -0.0012
     13 C          63.4227   90.7418   10.3152 C.ar    1  UNL1        0.0366
     14 C          63.0650   90.8917   11.7642 C.ar    1  UNL1        0.1387
     15 C          61.8396   90.2188   12.3077 C.ar    1  UNL1        0.0366
     16 C          60.9718   89.3959   11.4023 C.ar    1  UNL1       -0.0012
     17 O          63.9327   91.7145   12.6697 O.3     1  UNL1       -0.4714
     18 C          65.2843   92.1689   12.2040 C.3     1  UNL1        0.2525
     19 C          65.9101   93.3948   12.8003 C.3     1  UNL1        0.2525
     20 O          67.0605   94.0624   12.1071 O.3     1  UNL1       -0.4697
     21 C          66.8440   94.7605   10.7971 C.ar    1  UNL1        0.1596
     22 C          66.2821   96.1510   10.7722 C.ar    1  UNL1        0.0921
     23 CL         65.9367   96.8435   12.0572 Cl      1  UNL1       -0.0791
     24 C          66.0655   96.8491    9.4623 C.ar    1  UNL1        0.0103
     25 C          66.4109   96.1566    8.1773 C.ar    1  UNL1       -0.0200
     26 C          66.1944   96.8547    6.8675 C.3     1  UNL1        0.0311
     27 C          66.9728   94.7660    8.2023 C.ar    1  UNL1        0.0103
     28 C          67.1893   94.0680    9.5122 C.ar    1  UNL1        0.0921
     29 CL         67.7512   92.6774    9.5371 Cl      1  UNL1       -0.0791
     30 C          62.5420   84.9724    7.7498 C.3     1  UNL1        0.0758
     31 C          61.7113   84.7059    6.5295 C.3     1  UNL1        0.0215
     32 C          63.2082   84.6915    6.4356 C.3     1  UNL1        0.0215
     33 C          63.6828   84.6231   10.0577 C.3     1  UNL1        0.1201
     34 C          63.0129   80.7547   10.6378 C.ar    1  UNL1       -0.0194
     35 C          63.3176   82.0530    9.9512 C.ar    1  UNL1       -0.0067
     36 C          63.3780   83.3247   10.7443 C.ar    1  UNL1        0.0004
     37 C          63.1337   83.2981   12.2240 C.ar    1  UNL1        0.0343
     38 C          62.8290   81.9998   12.9106 C.ar    1  UNL1        0.1380
     39 C          62.7685   80.7281   12.1175 C.ar    1  UNL1        0.0326
     40 O          62.5846   81.9732   14.3904 O.3     1  UNL1       -0.4755
     41 C          62.4472   83.2586   15.1511 C.3     1  UNL1        0.2058
     42 C          63.5299   84.2941   15.0759 C.3     1  UNL1        0.0529
     43 C          64.9165   84.6965   14.6695 C.3     1  UNL1        0.0134
     44 C          64.0184   85.6852   15.3520 C.3     1  UNL1        0.0817
     45 C          63.7819   87.0591   15.9054 C.2     1  UNL1        0.2402
     46 O          63.4042   87.2323   17.3467 O.2     1  UNL1       -0.2736
     47 N          63.9232   88.2599   15.0176 N.am    1  UNL1       -0.1887
     48 H          64.1711   88.1462   14.0716 H       1  UNL1        0.1762
     49 S          63.6867   89.6338   15.5710 S.O2    1  UNL1        0.0578
     50 C          63.4502   91.0078   16.1245 C.3     1  UNL1        0.1997
     51 O          65.0924   90.0186   15.2163 O.2     1  UNL1       -0.1544
     52 O          62.2810   89.2490   15.9257 O.2     1  UNL1       -0.1544
     53 C          62.9524   79.4829    9.8447 C.3     1  UNL1        0.0290
     54 C          62.6205   78.1888   10.5266 C.3     1  UNL1        0.0367
     55 C          63.4486   76.9668   10.2602 C.3     1  UNL1        0.1426
     56 C          64.9884   75.7866    8.5321 C.3     1  UNL1        0.1741
     57 O          64.5746   77.0248    9.2708 O.3     1  UNL1       -0.3511
@<TRIPOS>BOND
     1    56    57    1
     2    57    55    1
     3    55    54    1
     4    54    53    1
     5    53    34    1
     6    34    35   ar
     7    35    36   ar
     8    36    33    1
     9    33     1    1
    10     1     2   am
    11     2     3    2
    12     4     2    1
    13     4     5    1
    14     5     6    1
    15     6     7    1
    16     7     8    1
    17     8     9    1
    18     9    11    1
    19    11    12   ar
    20    12    13   ar
    21    13    14   ar
    22    14    17    1
    23    17    18    1
    24    18    19    1
    25    19    20    1
    26    20    21    1
    27    21    22   ar
    28    22    23    1
    29    22    24   ar
    30    24    25   ar
    31    25    26    1
    32    25    27   ar
    33    27    28   ar
    34    28    29    1
    35    14    15   ar
    36    15    16   ar
    37     1    30    1
    38    30    31    1
    39    31    32    1
    40    36    37   ar
    41    37    38   ar
    42    38    40    1
    43    40    41    1
    44    42    41    1
    45    42    43    1
    46    43    44    1
    47    44    45    1
    48    45    46    2
    49    45    47   am
    50    47    49    1
    51    49    50    1
    52    49    51    2
    53    49    52    2
    54    38    39   ar
    55    39    34   ar
    56     9     4    1
    57    16    11   ar
    58    32    30    1
    59    44    42    1
    60    28    21   ar
    61     6    10    1
    62    47    48    1
@<TRIPOS>MOLECULE
*****
 57 62 0 0 0
SMALL
GASTEIGER

@<TRIPOS>ATOM
      1 N          61.6554   89.9108   10.9798 N.am    1  UNL1       -0.2770
      2 C          61.9804   89.0860    9.7698 C.2     1  UNL1        0.2270
      3 O          63.4037   88.9472    9.3170 O.2     1  UNL1       -0.2748
      4 C          60.8822   88.4000    9.0126 C.3     1  UNL1        0.0964
      5 C          59.8898   89.2100    8.2322 C.3     1  UNL1        0.0780
      6 N          58.7916   88.5240    7.4751 N.3     1  UNL1       -0.2970
      7 C          58.6857   87.0280    7.4983 C.3     1  UNL1        0.0689
      8 C          59.6781   86.2178    8.2787 C.3     1  UNL1        0.0220
      9 C          60.7763   86.9038    9.0359 C.3     1  UNL1        0.0337
     10 H          58.8930   88.7969    6.4975 H       1  UNL1        0.1233
     11 C          61.7687   86.0938    9.8163 C.ar    1  UNL1       -0.0217
     12 C          61.7063   86.0722   11.3149 C.ar    1  UNL1       -0.0012
     13 C          62.6986   85.2622   12.0952 C.ar    1  UNL1        0.0366
     14 C          63.7534   84.4737   11.3771 C.ar    1  UNL1        0.1387
     15 C          63.8158   84.4953    9.8786 C.ar    1  UNL1        0.0366
     16 C          62.8235   85.3053    9.0981 C.ar    1  UNL1       -0.0012
     17 O          64.7457   83.6637   12.1575 O.3     1  UNL1       -0.4714
     18 C          64.3908   83.1561   13.5237 C.3     1  UNL1        0.2525
     19 C          63.0528   82.5221   13.7640 C.3     1  UNL1        0.2525
     20 O          62.2193   82.0668   12.6031 O.3     1  UNL1       -0.4697
     21 C          62.4599   80.7191   11.9899 C.ar    1  UNL1        0.1596
     22 C          62.8850   80.6129   10.5554 C.ar    1  UNL1        0.0921
     23 CL         63.0696   81.8543    9.7339 Cl      1  UNL1       -0.0791
     24 C          63.1256   79.2652    9.9422 C.ar    1  UNL1        0.0103
     25 C          62.9411   78.0237   10.7636 C.ar    1  UNL1       -0.0200
     26 C          63.1816   76.6761   10.1506 C.3     1  UNL1        0.0311
     27 C          62.5159   78.1300   12.1982 C.ar    1  UNL1        0.0103
     28 C          62.2753   79.4776   12.8113 C.ar    1  UNL1        0.0921
     29 CL         61.8502   79.5839   14.2459 Cl      1  UNL1       -0.0791
     30 C          60.2321   90.0496   11.4326 C.3     1  UNL1        0.0758
     31 C          58.9964   89.4500   12.0355 C.3     1  UNL1        0.0215
     32 C          59.0027   90.8896   11.6140 C.3     1  UNL1        0.0215
     33 C          62.7536   90.5968   11.7369 C.3     1  UNL1        0.1201
     34 C          64.0736   88.0428   14.4727 C.ar    1  UNL1       -0.0194
     35 C          63.6085   88.5976   13.1591 C.ar    1  UNL1       -0.0067
     36 C          63.2188   90.0420   13.0507 C.ar    1  UNL1        0.0004
     37 C          63.2942   90.9317   14.2560 C.ar    1  UNL1        0.0343
     38 C          63.7594   90.3769   15.5697 C.ar    1  UNL1        0.1380
     39 C          64.1491   88.9324   15.6780 C.ar    1  UNL1        0.0326
     40 O          63.8349   91.2665   16.7751 O.3     1  UNL1       -0.4755
     41 C          64.6592   92.5190   16.7324 C.3     1  UNL1        0.2058
     42 C          66.0317   92.4933   16.1276 C.3     1  UNL1        0.0529
     43 C          67.5196   92.3903   16.2868 C.3     1  UNL1        0.0134
     44 C          66.9209   92.5518   14.9210 C.3     1  UNL1        0.0817
     45 C          67.0885   92.6789   13.4359 C.2     1  UNL1        0.2402
     46 O          68.2319   91.9929   12.7488 O.2     1  UNL1       -0.2736
     47 N          66.1129   93.4920   12.6378 N.am    1  UNL1       -0.1887
     48 H          65.3624   93.9423   13.0888 H       1  UNL1        0.1762
     49 S          66.2805   93.6191   11.1527 S.O2    1  UNL1        0.0578
     50 C          66.4482   93.7462    9.6674 C.3     1  UNL1        0.1997
     51 O          66.9461   94.9499   11.3417 O.2     1  UNL1       -0.1544
     52 O          65.6149   92.2882   10.9637 O.2     1  UNL1       -0.1544
     53 C          64.4633   86.5984   14.5811 C.3     1  UNL1        0.0290
     54 C          64.1394   85.8255   15.8252 C.3     1  UNL1        0.0367
     55 C          62.7401   85.3411   16.0642 C.3     1  UNL1        0.1426
     56 C          62.5908   86.7410   18.2478 C.3     1  UNL1        0.1741
     57 O          61.9250   85.9241   17.1804 O.3     1  UNL1       -0.3511
@<TRIPOS>BOND
     1    56    57    1
     2    57    55    1
     3    55    54    1
     4    54    53    1
     5    53    34    1
     6    34    35   ar
     7    35    36   ar
     8    36    33    1
     9    33     1    1
    10     1     2   am
    11     2     3    2
    12     4     2    1
    13     4     5    1
    14     5     6    1
    15     6     7    1
    16     7     8    1
    17     8     9    1
    18     9    11    1
    19    11    12   ar
    20    12    13   ar
    21    13    14   ar
    22    14    17    1
    23    17    18    1
    24    18    19    1
    25    19    20    1
    26    20    21    1
    27    21    22   ar
    28    22    23    1
    29    22    24   ar
    30    24    25   ar
    31    25    26    1
    32    25    27   ar
    33    27    28   ar
    34    28    29    1
    35    14    15   ar
    36    15    16   ar
    37     1    30    1
    38    30    31    1
    39    31    32    1
    40    36    37   ar
    41    37    38   ar
    42    38    40    1
    43    40    41    1
    44    42    41    1
    45    42    43    1
    46    43    44    1
    47    44    45    1
    48    45    46    2
    49    45    47   am
    50    47    49    1
    51    49    50    1
    52    49    51    2
    53    49    52    2
    54    38    39   ar
    55    39    34   ar
    56     9     4    1
    57    16    11   ar
    58    32    30    1
    59    44    42    1
    60    28    21   ar
    61     6    10    1
    62    47    48    1
@<TRIPOS>MOLECULE
*****
 57 62 0 0 0
SMALL
GASTEIGER

@<TRIPOS>ATOM
      1 N          61.1278   86.3690   10.5038 N.am    1  UNL1       -0.2770
      2 C          60.1003   87.4597   10.4350 C.2     1  UNL1        0.2270
      3 O          59.3606   87.8725   11.6729 O.2     1  UNL1       -0.2748
      4 C          59.8126   88.1376    9.1282 C.3     1  UNL1        0.0964
      5 C          58.8712   87.5052    8.1465 C.3     1  UNL1        0.0780
      6 N          58.5835   88.1831    6.8397 N.3     1  UNL1       -0.2970
      7 C          59.2372   89.4935    6.5147 C.3     1  UNL1        0.0689
      8 C          60.1786   90.1260    7.4964 C.3     1  UNL1        0.0220
      9 C          60.4663   89.4481    8.8032 C.3     1  UNL1        0.0337
     10 H          57.5762   88.3399    6.8048 H       1  UNL1        0.1233
     11 C          61.4077   90.0805    9.7849 C.ar    1  UNL1       -0.0217
     12 C          61.1782   89.9143   11.2580 C.ar    1  UNL1       -0.0012
     13 C          62.1196   90.5467   12.2397 C.ar    1  UNL1        0.0366
     14 C          63.2904   91.3454   11.7484 C.ar    1  UNL1        0.1387
     15 C          63.5199   91.5116   10.2755 C.ar    1  UNL1        0.0366
     16 C          62.5785   90.8791    9.2937 C.ar    1  UNL1       -0.0012
     17 O          64.2318   91.9778   12.7301 O.3     1  UNL1       -0.4714
     18 C          65.6440   92.2819   12.3260 C.3     1  UNL1        0.2525
     19 C          66.3334   93.4992   12.8673 C.3     1  UNL1        0.2525
     20 O          67.3927   94.1842   12.0558 O.3     1  UNL1       -0.4697
     21 C          67.0319   94.8509   10.7613 C.ar    1  UNL1        0.1596
     22 C          66.3488   96.1863   10.7703 C.ar    1  UNL1        0.0921
     23 CL         66.0264   96.8550   12.0737 Cl      1  UNL1       -0.0791
     24 C          65.9881   96.8529    9.4759 C.ar    1  UNL1        0.0103
     25 C          66.3105   96.1842    8.1725 C.ar    1  UNL1       -0.0200
     26 C          65.9498   96.8507    6.8781 C.3     1  UNL1        0.0311
     27 C          66.9936   94.8487    8.1635 C.ar    1  UNL1        0.0103
     28 C          67.3543   94.1821    9.4579 C.ar    1  UNL1        0.0921
     29 CL         68.0374   92.8467    9.4490 Cl      1  UNL1       -0.0791
     30 C          61.8675   85.9563    9.2659 C.3     1  UNL1        0.0758
     31 C          61.8602   85.3988    7.8734 C.3     1  UNL1        0.0215
     32 C          63.1560   85.7988    8.5143 C.3     1  UNL1        0.0215
     33 C          61.4155   85.6911   11.8106 C.3     1  UNL1        0.1201
     34 C          63.4156   82.3545   11.0252 C.ar    1  UNL1       -0.0194
     35 C          62.3778   83.4351   10.9534 C.ar    1  UNL1       -0.0067
     36 C          62.4534   84.6104   11.8824 C.ar    1  UNL1        0.0004
     37 C          63.5668   84.7051   12.8830 C.ar    1  UNL1        0.0343
     38 C          64.6045   83.6245   12.9548 C.ar    1  UNL1        0.1380
     39 C          64.5289   82.4491   12.0258 C.ar    1  UNL1        0.0326
     40 O          65.7180   83.7191   13.9555 O.3     1  UNL1       -0.4755
     41 C          65.4056   83.9284   15.4075 C.3     1  UNL1        0.2058
     42 C          64.1285   84.6046   15.8101 C.3     1  UNL1        0.0529
     43 C          62.6619   84.5339   16.1169 C.3     1  UNL1        0.0134
     44 C          63.3832   85.8464   16.2005 C.3     1  UNL1        0.0817
     45 C          63.3693   87.3211   16.4741 C.2     1  UNL1        0.2402
     46 O          63.1890   87.8220   17.8765 O.2     1  UNL1       -0.2736
     47 N          63.5358   88.2950   15.3455 N.am    1  UNL1       -0.1887
     48 H          63.6542   87.9662   14.4251 H       1  UNL1        0.1762
     49 S          63.5219   89.7697   15.6191 S.O2    1  UNL1        0.0578
     50 C          63.5080   91.2445   15.8928 C.3     1  UNL1        0.1997
     51 O          62.0877   89.6766   16.0482 O.2     1  UNL1       -0.1544
     52 O          64.9562   89.8628   15.1901 O.2     1  UNL1       -0.1544
     53 C          63.3400   81.1792   10.0962 C.3     1  UNL1        0.0290
     54 C          63.1462   79.7980   10.6483 C.3     1  UNL1        0.0367
     55 C          62.2719   79.5860   11.8486 C.3     1  UNL1        0.1426
     56 C          61.6690   81.0331   13.9204 C.3     1  UNL1        0.1741
     57 O          62.6531   80.1859   13.1696 O.3     1  UNL1       -0.3511
@<TRIPOS>BOND
     1    56    57    1
     2    57    55    1
     3    55    54    1
     4    54    53    1
     5    53    34    1
     6    34    35   ar
     7    35    36   ar
     8    36    33    1
     9    33     1    1
    10     1     2   am
    11     2     3    2
    12     4     2    1
    13     4     5    1
    14     5     6    1
    15     6     7    1
    16     7     8    1
    17     8     9    1
    18     9    11    1
    19    11    12   ar
    20    12    13   ar
    21    13    14   ar
    22    14    17    1
    23    17    18    1
    24    18    19    1
    25    19    20    1
    26    20    21    1
    27    21    22   ar
    28    22    23    1
    29    22    24   ar
    30    24    25   ar
    31    25    26    1
    32    25    27   ar
    33    27    28   ar
    34    28    29    1
    35    14    15   ar
    36    15    16   ar
    37     1    30    1
    38    30    31    1
    39    31    32    1
    40    36    37   ar
    41    37    38   ar
    42    38    40    1
    43    40    41    1
    44    42    41    1
    45    42    43    1
    46    43    44    1
    47    44    45    1
    48    45    46    2
    49    45    47   am
    50    47    49    1
    51    49    50    1
    52    49    51    2
    53    49    52    2
    54    38    39   ar
    55    39    34   ar
    56     9     4    1
    57    16    11   ar
    58    32    30    1
    59    44    42    1
    60    28    21   ar
    61     6    10    1
    62    47    48    1
@<TRIPOS>MOLECULE
*****
 57 62 0 0 0
SMALL
GASTEIGER

@<TRIPOS>ATOM
      1 N          61.3666   89.0227   11.4209 N.am    1  UNL1       -0.2770
      2 C          62.8430   88.9314   11.6699 C.2     1  UNL1        0.2270
      3 O          63.5424   87.6093   11.5568 O.2     1  UNL1       -0.2748
      4 C          63.6200   90.1623   12.0320 C.3     1  UNL1        0.0964
      5 C          63.8747   91.2195   10.9988 C.3     1  UNL1        0.0780
      6 N          64.6517   92.4504   11.3609 N.3     1  UNL1       -0.2970
      7 C          65.1740   92.6242   12.7562 C.3     1  UNL1        0.0689
      8 C          64.9193   91.5670   13.7895 C.3     1  UNL1        0.0220
      9 C          64.1423   90.3361   13.4274 C.3     1  UNL1        0.0337
     10 H          64.0445   93.2479   11.1723 H       1  UNL1        0.1233
     11 C          63.8876   89.2790   14.4606 C.ar    1  UNL1       -0.0217
     12 C          64.4775   87.9099   14.2941 C.ar    1  UNL1       -0.0012
     13 C          64.2228   86.8528   15.3273 C.ar    1  UNL1        0.0366
     14 C          63.3782   87.1646   16.5271 C.ar    1  UNL1        0.1387
     15 C          62.7883   88.5336   16.6936 C.ar    1  UNL1        0.0366
     16 C          63.0430   89.5908   15.6603 C.ar    1  UNL1       -0.0012
     17 O          63.1235   86.1075   17.5603 O.3     1  UNL1       -0.4714
     18 C          62.1973   84.9678   17.2547 C.3     1  UNL1        0.2525
     19 C          62.1778   84.3647   15.8815 C.3     1  UNL1        0.2525
     20 O          62.9397   83.1024   15.6059 O.3     1  UNL1       -0.4697
     21 C          63.1036   82.6179   14.1957 C.ar    1  UNL1        0.1596
     22 C          64.2397   83.1226   13.3565 C.ar    1  UNL1        0.0921
     23 CL         65.2121   84.1118   13.9274 Cl      1  UNL1       -0.0791
     24 C          64.4035   82.6381   11.9463 C.ar    1  UNL1        0.0103
     25 C          63.4312   81.6489   11.3755 C.ar    1  UNL1       -0.0200
     26 C          63.5949   81.1644    9.9654 C.3     1  UNL1        0.0311
     27 C          62.2950   81.1441   12.2148 C.ar    1  UNL1        0.0103
     28 C          62.1312   81.6286   13.6249 C.ar    1  UNL1        0.0921
     29 CL         60.9950   81.1239   14.4642 Cl      1  UNL1       -0.0791
     30 C          60.6672   90.3448   11.5340 C.3     1  UNL1        0.0758
     31 C          60.7177   91.8248   11.7729 C.3     1  UNL1        0.0215
     32 C          59.4055   91.1548   11.4911 C.3     1  UNL1        0.0215
     33 C          60.5896   87.7918   11.0588 C.3     1  UNL1        0.1201
     34 C          60.1524   85.8801    7.6085 C.ar    1  UNL1       -0.0194
     35 C          60.4950   86.1560    9.0425 C.ar    1  UNL1       -0.0067
     36 C          60.2470   87.5160    9.6247 C.ar    1  UNL1        0.0004
     37 C          59.6564   88.6001    8.7728 C.ar    1  UNL1        0.0343
     38 C          59.3138   88.3243    7.3387 C.ar    1  UNL1        0.1380
     39 C          59.5618   86.9643    6.7566 C.ar    1  UNL1        0.0326
     40 O          58.7232   89.4085    6.4868 O.3     1  UNL1       -0.4755
     41 C          59.6072   90.4735    5.9086 C.3     1  UNL1        0.2058
     42 C          59.0574   91.4394    4.9013 C.3     1  UNL1        0.0529
     43 C          57.8863   92.1349    4.2731 C.3     1  UNL1        0.0134
     44 C          59.2762   92.4171    3.7850 C.3     1  UNL1        0.0817
     45 C          60.2051   93.1445    2.8586 C.2     1  UNL1        0.2402
     46 O          60.0799   94.6290    2.6845 O.2     1  UNL1       -0.2736
     47 N          61.2591   92.3873    2.1065 N.am    1  UNL1       -0.1887
     48 H          61.3412   91.4129    2.2208 H       1  UNL1        0.1762
     49 S          62.1879   93.1147    1.1801 S.O2    1  UNL1        0.0578
     50 C          63.1169   93.8421    0.2538 C.3     1  UNL1        0.1997
     51 O          63.1806   93.2661    2.2944 O.2     1  UNL1       -0.1544
     52 O          61.1953   92.9632    0.0659 O.2     1  UNL1       -0.1544
     53 C          60.4004   84.5201    7.0263 C.3     1  UNL1        0.0290
     54 C          61.5115   84.3182    6.0390 C.3     1  UNL1        0.0367
     55 C          62.9389   84.4676    6.4753 C.3     1  UNL1        0.1426
     56 C          63.5238   84.5540    9.0052 C.3     1  UNL1        0.1741
     57 O          63.2679   85.2591    7.7063 O.3     1  UNL1       -0.3511
@<TRIPOS>BOND
     1    56    57    1
     2    57    55    1
     3    55    54    1
     4    54    53    1
     5    53    34    1
     6    34    35   ar
     7    35    36   ar
     8    36    33    1
     9    33     1    1
    10     1     2   am
    11     2     3    2
    12     4     2    1
    13     4     5    1
    14     5     6    1
    15     6     7    1
    16     7     8    1
    17     8     9    1
    18     9    11    1
    19    11    12   ar
    20    12    13   ar
    21    13    14   ar
    22    14    17    1
    23    17    18    1
    24    18    19    1
    25    19    20    1
    26    20    21    1
    27    21    22   ar
    28    22    23    1
    29    22    24   ar
    30    24    25   ar
    31    25    26    1
    32    25    27   ar
    33    27    28   ar
    34    28    29    1
    35    14    15   ar
    36    15    16   ar
    37     1    30    1
    38    30    31    1
    39    31    32    1
    40    36    37   ar
    41    37    38   ar
    42    38    40    1
    43    40    41    1
    44    42    41    1
    45    42    43    1
    46    43    44    1
    47    44    45    1
    48    45    46    2
    49    45    47   am
    50    47    49    1
    51    49    50    1
    52    49    51    2
    53    49    52    2
    54    38    39   ar
    55    39    34   ar
    56     9     4    1
    57    16    11   ar
    58    32    30    1
    59    44    42    1
    60    28    21   ar
    61     6    10    1
    62    47    48    1
@<TRIPOS>MOLECULE
*****
 57 62 0 0 0
SMALL
GASTEIGER

@<TRIPOS>ATOM
      1 N          61.9226   85.2237   11.0656 N.am    1  UNL1       -0.2770
      2 C          62.1971   84.8136   12.4821 C.2     1  UNL1        0.2270
      3 O          61.2732   85.2479   13.5811 O.2     1  UNL1       -0.2748
      4 C          63.3955   83.9692   12.7996 C.3     1  UNL1        0.0964
      5 C          63.6765   82.7338   11.9966 C.3     1  UNL1        0.0780
      6 N          64.8749   81.8894   12.3141 N.3     1  UNL1       -0.2970
      7 C          65.7922   82.2803   13.4346 C.3     1  UNL1        0.0689
      8 C          65.5112   83.5157   14.2378 C.3     1  UNL1        0.0220
      9 C          64.3128   84.3601   13.9203 C.3     1  UNL1        0.0337
     10 H          65.4427   81.8539   11.4675 H       1  UNL1        0.1233
     11 C          64.0318   85.5954   14.7233 C.ar    1  UNL1       -0.0217
     12 C          64.3431   86.9476   14.1532 C.ar    1  UNL1       -0.0012
     13 C          64.0620   88.1829   14.9563 C.ar    1  UNL1        0.0366
     14 C          63.4697   88.0662   16.3294 C.ar    1  UNL1        0.1387
     15 C          63.1583   86.7142   16.8995 C.ar    1  UNL1        0.0366
     16 C          63.4394   85.4787   16.0964 C.ar    1  UNL1       -0.0012
     17 O          63.1886   89.3015   17.1324 O.3     1  UNL1       -0.4714
     18 C          63.3630   90.6557   16.5112 C.3     1  UNL1        0.2525
     19 C          64.4179   91.5881   17.0289 C.3     1  UNL1        0.2525
     20 O          64.9306   92.6974   16.1591 O.3     1  UNL1       -0.4697
     21 C          65.9074   92.3988   15.0606 C.ar    1  UNL1        0.1596
     22 C          67.3635   92.7062   15.2477 C.ar    1  UNL1        0.0921
     23 CL         67.8430   93.3123   16.5333 Cl      1  UNL1       -0.0791
     24 C          68.3403   92.4076   14.1491 C.ar    1  UNL1        0.0103
     25 C          67.8609   91.8016   12.8635 C.ar    1  UNL1       -0.0200
     26 C          68.8376   91.5030   11.7650 C.3     1  UNL1        0.0311
     27 C          66.4047   91.4942   12.6764 C.ar    1  UNL1        0.0103
     28 C          65.4279   91.7928   13.7749 C.ar    1  UNL1        0.0921
     29 CL         63.9717   91.4853   13.5878 Cl      1  UNL1       -0.0791
     30 C          62.8465   84.7894    9.9666 C.3     1  UNL1        0.0758
     31 C          63.3677   84.9481    8.5691 C.3     1  UNL1        0.0215
     32 C          63.9255   83.8786    9.4607 C.3     1  UNL1        0.0215
     33 C          60.7242   86.0682   10.7481 C.3     1  UNL1        0.1201
     34 C          62.1705   89.7246   10.2109 C.ar    1  UNL1       -0.0194
     35 C          61.9885   88.3379   10.7530 C.ar    1  UNL1       -0.0067
     36 C          60.9063   87.4549   10.2060 C.ar    1  UNL1        0.0004
     37 C          60.0061   87.9586    9.1170 C.ar    1  UNL1        0.0343
     38 C          60.1882   89.3454    8.5750 C.ar    1  UNL1        0.1380
     39 C          61.2704   90.2283    9.1219 C.ar    1  UNL1        0.0326
     40 O          59.2880   89.8491    7.4859 O.3     1  UNL1       -0.4755
     41 C          59.8470   90.1370    6.1240 C.3     1  UNL1        0.2058
     42 C          59.1508   91.1084    5.2175 C.3     1  UNL1        0.0529
     43 C          57.9330   91.9078    4.8599 C.3     1  UNL1        0.0134
     44 C          59.1627   91.9914    4.0050 C.3     1  UNL1        0.0817
     45 C          59.8796   92.5495    2.8115 C.2     1  UNL1        0.2402
     46 O          61.3486   92.8426    2.8884 O.2     1  UNL1       -0.2736
     47 N          59.1274   92.8146    1.5411 N.am    1  UNL1       -0.1887
     48 H          58.1632   92.6222    1.4906 H       1  UNL1        0.1762
     49 S          59.8443   93.3727    0.3475 S.O2    1  UNL1        0.0578
     50 C          60.5612   93.9308   -0.8461 C.3     1  UNL1        0.1997
     51 O          59.4547   94.7604    0.7625 O.2     1  UNL1       -0.1544
     52 O          60.2339   91.9849   -0.0674 O.2     1  UNL1       -0.1544
     53 C          63.2527   90.6076   10.7579 C.3     1  UNL1        0.0290
     54 C          63.5928   91.8940   10.0654 C.3     1  UNL1        0.0367
     55 C          64.9732   92.4684   10.1857 C.3     1  UNL1        0.1426
     56 C          66.5102   94.5462   10.4513 C.3     1  UNL1        0.1741
     57 O          65.1558   93.9103   10.5569 O.3     1  UNL1       -0.3511
@<TRIPOS>BOND
     1    56    57    1
     2    57    55    1
     3    55    54    1
     4    54    53    1
     5    53    34    1
     6    34    35   ar
     7    35    36   ar
     8    36    33    1
     9    33     1    1
    10     1     2   am
    11     2     3    2
    12     4     2    1
    13     4     5    1
    14     5     6    1
    15     6     7    1
    16     7     8    1
    17     8     9    1
    18     9    11    1
    19    11    12   ar
    20    12    13   ar
    21    13    14   ar
    22    14    17    1
    23    17    18    1
    24    18    19    1
    25    19    20    1
    26    20    21    1
    27    21    22   ar
    28    22    23    1
    29    22    24   ar
    30    24    25   ar
    31    25    26    1
    32    25    27   ar
    33    27    28   ar
    34    28    29    1
    35    14    15   ar
    36    15    16   ar
    37     1    30    1
    38    30    31    1
    39    31    32    1
    40    36    37   ar
    41    37    38   ar
    42    38    40    1
    43    40    41    1
    44    42    41    1
    45    42    43    1
    46    43    44    1
    47    44    45    1
    48    45    46    2
    49    45    47   am
    50    47    49    1
    51    49    50    1
    52    49    51    2
    53    49    52    2
    54    38    39   ar
    55    39    34   ar
    56     9     4    1
    57    16    11   ar
    58    32    30    1
    59    44    42    1
    60    28    21   ar
    61     6    10    1
    62    47    48    1
