@<TRIPOS>MOLECULE
*****
 29 32 0 0 0
SMALL
GASTEIGER

@<TRIPOS>ATOM
      1 N          63.3252   90.4027   11.7232 N.ar    1  UNL1       -0.2880
      2 C          64.2415   91.4627   11.1877 C.ar    1  UNL1        0.0847
      3 C          64.9267   92.1144   12.3520 C.ar    1  UNL1        0.0595
      4 C          64.4339   91.4572   13.6071 C.ar    1  UNL1        0.0391
      5 C          64.7586   91.6854   15.0536 C.ar    1  UNL1        0.0047
      6 C          64.0935   90.8557   16.1115 C.ar    1  UNL1        0.0208
      7 C          63.1036   89.7978   15.7228 C.ar    1  UNL1        0.1005
      8 N          62.7789   89.5696   14.2763 N.ar    1  UNL1       -0.2264
      9 C          63.4441   90.3993   13.2185 C.ar    1  UNL1        0.1478
     10 C          60.6831   87.7062    9.2739 C.ar    1  UNL1        0.0163
     11 C          60.6324   89.1916    9.0714 C.ar    1  UNL1        0.0028
     12 C          61.5131   90.0904    9.8878 C.ar    1  UNL1        0.0199
     13 C          62.4445   89.5039   10.9068 C.ar    1  UNL1        0.0927
     14 C          62.4953   88.0184   11.1093 C.ar    1  UNL1        0.1562
     15 F          63.4267   87.4319   12.1283 F       1  UNL1       -0.2026
     16 C          61.6146   87.1196   10.2929 C.ar    1  UNL1        0.0323
     17 O          60.3762   85.5823    7.8095 O.co2   1  UNL1       -0.5446
     18 C          59.8025   86.8074    8.4575 C.2     1  UNL1        0.0729
     19 O          58.3481   87.1337    8.2890 O.co2   1  UNL1       -0.5446
     20 C          65.9289   93.2278   12.2749 C.2     1  UNL1        0.1987
     21 O          66.1308   94.1380   13.4499 O.2     1  UNL1       -0.2865
     22 C          66.7293   93.4311   11.0225 C.ar    1  UNL1        0.0601
     23 C          66.3799   94.5461   10.0819 C.ar    1  UNL1        0.0615
     24 CL         65.2302   95.4577   10.3936 Cl      1  UNL1       -0.0821
     25 C          67.1802   94.7494    8.8296 C.ar    1  UNL1        0.0115
     26 C          68.3299   93.8377    8.5180 C.ar    1  UNL1        0.0017
     27 C          68.6792   92.7227    9.4587 C.ar    1  UNL1        0.0115
     28 C          67.8789   92.5194   10.7109 C.ar    1  UNL1        0.0615
     29 CL         68.2283   91.4044   11.6516 Cl      1  UNL1       -0.0821
@<TRIPOS>UNITY_ATOM_ATTR
17 1
charge -1
@<TRIPOS>BOND
     1    17    18   ar
     2    18    19   ar
     3    18    10    1
     4    10    11   ar
     5    11    12   ar
     6    12    13   ar
     7    13     1    1
     8     1     2   ar
     9     2     3   ar
    10     3    20    1
    11    20    21    2
    12    20    22    1
    13    22    23   ar
    14    23    24    1
    15    23    25   ar
    16    25    26   ar
    17    26    27   ar
    18    27    28   ar
    19    28    29    1
    20     3     4   ar
    21     4     5   ar
    22     5     6   ar
    23     6     7   ar
    24     7     8   ar
    25     8     9   ar
    26    13    14   ar
    27    14    15    1
    28    14    16   ar
    29    16    10   ar
    30     9     1   ar
    31    28    22   ar
    32     9     4   ar
@<TRIPOS>MOLECULE
*****
 29 32 0 0 0
SMALL
GASTEIGER

@<TRIPOS>ATOM
      1 N          64.4569   90.4791   13.8159 N.ar    1  UNL1       -0.2880
      2 C          65.5262   91.5126   14.0124 C.ar    1  UNL1        0.0847
      3 C          65.6158   92.3308   12.7584 C.ar    1  UNL1        0.0595
      4 C          64.6020   91.8031   11.7870 C.ar    1  UNL1        0.0391
      5 C          64.2386   92.2167   10.3917 C.ar    1  UNL1        0.0047
      6 C          63.1588   91.4859    9.6501 C.ar    1  UNL1        0.0208
      7 C          62.4425   90.3415   10.3037 C.ar    1  UNL1        0.1005
      8 N          62.8060   89.9278   11.6989 N.ar    1  UNL1       -0.2264
      9 C          63.8857   90.6586   12.4406 C.ar    1  UNL1        0.1478
     10 C          63.1856   87.3836   16.8246 C.ar    1  UNL1        0.0163
     11 C          63.7922   86.9574   15.5206 C.ar    1  UNL1        0.0028
     12 C          64.2160   87.9893   14.5178 C.ar    1  UNL1        0.0199
     13 C          64.0331   89.4473   14.8188 C.ar    1  UNL1        0.0927
     14 C          63.4264   89.8735   16.1228 C.ar    1  UNL1        0.1562
     15 F          63.2436   91.3315   16.4239 F       1  UNL1       -0.2026
     16 C          63.0027   88.8417   17.1257 C.ar    1  UNL1        0.0323
     17 O          62.3615   84.9807   17.3693 O.co2   1  UNL1       -0.5446
     18 C          62.7618   86.3518   17.8274 C.2     1  UNL1        0.0729
     19 O          62.7384   86.6910   19.2884 O.co2   1  UNL1       -0.5446
     20 C          66.5546   93.4758   12.5180 C.2     1  UNL1        0.1987
     21 O          67.1385   94.2236   13.6797 O.2     1  UNL1       -0.2865
     22 C          66.9094   93.8731   11.1157 C.ar    1  UNL1        0.0601
     23 C          67.7276   92.9524   10.2596 C.ar    1  UNL1        0.0615
     24 CL         68.1910   91.6345   10.8058 Cl      1  UNL1       -0.0821
     25 C          68.0824   93.3496    8.8573 C.ar    1  UNL1        0.0115
     26 C          67.6189   94.6676    8.3112 C.ar    1  UNL1        0.0017
     27 C          66.8007   95.5882    9.1673 C.ar    1  UNL1        0.0115
     28 C          66.4459   95.1910   10.5695 C.ar    1  UNL1        0.0615
     29 CL         65.6277   96.1117   11.4256 Cl      1  UNL1       -0.0821
@<TRIPOS>UNITY_ATOM_ATTR
17 1
charge -1
@<TRIPOS>BOND
     1    17    18   ar
     2    18    19   ar
     3    18    10    1
     4    10    11   ar
     5    11    12   ar
     6    12    13   ar
     7    13     1    1
     8     1     2   ar
     9     2     3   ar
    10     3    20    1
    11    20    21    2
    12    20    22    1
    13    22    23   ar
    14    23    24    1
    15    23    25   ar
    16    25    26   ar
    17    26    27   ar
    18    27    28   ar
    19    28    29    1
    20     3     4   ar
    21     4     5   ar
    22     5     6   ar
    23     6     7   ar
    24     7     8   ar
    25     8     9   ar
    26    13    14   ar
    27    14    15    1
    28    14    16   ar
    29    16    10   ar
    30     9     1   ar
    31    28    22   ar
    32     9     4   ar
@<TRIPOS>MOLECULE
*****
 29 32 0 0 0
SMALL
GASTEIGER

@<TRIPOS>ATOM
      1 N          62.4094   87.2685   11.4164 N.ar    1  UNL1       -0.2880
      2 C          62.7696   85.8332   11.6616 C.ar    1  UNL1        0.0847
      3 C          63.5784   85.7674   12.9232 C.ar    1  UNL1        0.0595
      4 C          63.7179   87.1619   13.4577 C.ar    1  UNL1        0.0391
      5 C          64.4095   87.7069   14.6720 C.ar    1  UNL1        0.0047
      6 C          64.3786   89.1796   14.9551 C.ar    1  UNL1        0.0208
      7 C          63.6561   90.1073   14.0238 C.ar    1  UNL1        0.1005
      8 N          62.9645   89.5624   12.8095 N.ar    1  UNL1       -0.2264
      9 C          62.9954   88.0897   12.5264 C.ar    1  UNL1        0.1478
     10 C          59.9943   88.8356    7.9578 C.ar    1  UNL1        0.0163
     11 C          60.6113   89.7911    8.9357 C.ar    1  UNL1        0.0028
     12 C          61.4163   89.2687   10.0886 C.ar    1  UNL1        0.0199
     13 C          61.6043   87.7909   10.2635 C.ar    1  UNL1        0.0927
     14 C          60.9873   86.8354    9.2855 C.ar    1  UNL1        0.1562
     15 F          61.1753   85.3575    9.4604 F       1  UNL1       -0.2026
     16 C          60.1823   87.3578    8.1327 C.ar    1  UNL1        0.0323
     17 O          59.8626   90.1286    5.7082 O.co2   1  UNL1       -0.5446
     18 C          59.1893   89.3580    6.8049 C.2     1  UNL1        0.0729
     19 O          57.7110   89.1099    6.7489 O.co2   1  UNL1       -0.5446
     20 C          64.1476   84.5250   13.5417 C.2     1  UNL1        0.1987
     21 O          65.4609   84.5809   14.2641 O.2     1  UNL1       -0.2865
     22 C          63.4035   83.2267   13.4378 C.ar    1  UNL1        0.0601
     23 C          62.4317   82.8314   14.5098 C.ar    1  UNL1        0.0615
     24 CL         62.2040   83.7344   15.6857 Cl      1  UNL1       -0.0821
     25 C          61.6875   81.5331   14.4059 C.ar    1  UNL1        0.0115
     26 C          61.9153   80.6302   13.2300 C.ar    1  UNL1        0.0017
     27 C          62.8871   81.0255   12.1580 C.ar    1  UNL1        0.0115
     28 C          63.6312   82.3238   12.2618 C.ar    1  UNL1        0.0615
     29 CL         64.6031   82.7191   11.1898 Cl      1  UNL1       -0.0821
@<TRIPOS>UNITY_ATOM_ATTR
17 1
charge -1
@<TRIPOS>BOND
     1    17    18   ar
     2    18    19   ar
     3    18    10    1
     4    10    11   ar
     5    11    12   ar
     6    12    13   ar
     7    13     1    1
     8     1     2   ar
     9     2     3   ar
    10     3    20    1
    11    20    21    2
    12    20    22    1
    13    22    23   ar
    14    23    24    1
    15    23    25   ar
    16    25    26   ar
    17    26    27   ar
    18    27    28   ar
    19    28    29    1
    20     3     4   ar
    21     4     5   ar
    22     5     6   ar
    23     6     7   ar
    24     7     8   ar
    25     8     9   ar
    26    13    14   ar
    27    14    15    1
    28    14    16   ar
    29    16    10   ar
    30     9     1   ar
    31    28    22   ar
    32     9     4   ar
@<TRIPOS>MOLECULE
*****
 29 32 0 0 0
SMALL
GASTEIGER

@<TRIPOS>ATOM
      1 N          62.4079   87.2602   11.4237 N.ar    1  UNL1       -0.2880
      2 C          62.7616   85.8241   11.6734 C.ar    1  UNL1        0.0847
      3 C          63.5737   85.7590   12.9328 C.ar    1  UNL1        0.0595
      4 C          63.7220   87.1549   13.4615 C.ar    1  UNL1        0.0391
      5 C          64.4200   87.7010   14.6716 C.ar    1  UNL1        0.0047
      6 C          64.3975   89.1749   14.9491 C.ar    1  UNL1        0.0208
      7 C          63.6770   90.1027   14.0163 C.ar    1  UNL1        0.1005
      8 N          62.9790   89.5567   12.8062 N.ar    1  UNL1       -0.2264
      9 C          63.0015   88.0827   12.5287 C.ar    1  UNL1        0.1478
     10 C          59.9906   88.8263    7.9662 C.ar    1  UNL1        0.0163
     11 C          60.6225   89.7826    8.9337 C.ar    1  UNL1        0.0028
     12 C          61.4283   89.2606   10.0862 C.ar    1  UNL1        0.0199
     13 C          61.6022   87.7823   10.2712 C.ar    1  UNL1        0.0927
     14 C          60.9702   86.8259    9.3036 C.ar    1  UNL1        0.1562
     15 F          61.1440   85.3475    9.4886 F       1  UNL1       -0.2026
     16 C          60.1644   87.3479    8.1511 C.ar    1  UNL1        0.0323
     17 O          59.8564   90.1242    5.7196 O.co2   1  UNL1       -0.5446
     18 C          59.1848   89.3484    6.8137 C.2     1  UNL1        0.0729
     19 O          57.7076   89.0946    6.7554 O.co2   1  UNL1       -0.5446
     20 C          64.1384   84.5162   13.5545 C.2     1  UNL1        0.1987
     21 O          65.4496   84.5701   14.2809 O.2     1  UNL1       -0.2865
     22 C          63.3918   83.2193   13.4498 C.ar    1  UNL1        0.0601
     23 C          63.6178   82.3167   12.2733 C.ar    1  UNL1        0.0615
     24 CL         64.5903   82.7110   11.2015 Cl      1  UNL1       -0.0821
     25 C          62.8713   81.0199   12.1685 C.ar    1  UNL1        0.0115
     26 C          61.8988   80.6257   13.2404 C.ar    1  UNL1        0.0017
     27 C          61.6728   81.5283   14.4169 C.ar    1  UNL1        0.0115
     28 C          62.4193   82.8251   14.5217 C.ar    1  UNL1        0.0615
     29 CL         62.1934   83.7277   15.6982 Cl      1  UNL1       -0.0821
@<TRIPOS>UNITY_ATOM_ATTR
17 1
charge -1
@<TRIPOS>BOND
     1    17    18   ar
     2    18    19   ar
     3    18    10    1
     4    10    11   ar
     5    11    12   ar
     6    12    13   ar
     7    13     1    1
     8     1     2   ar
     9     2     3   ar
    10     3    20    1
    11    20    21    2
    12    20    22    1
    13    22    23   ar
    14    23    24    1
    15    23    25   ar
    16    25    26   ar
    17    26    27   ar
    18    27    28   ar
    19    28    29    1
    20     3     4   ar
    21     4     5   ar
    22     5     6   ar
    23     6     7   ar
    24     7     8   ar
    25     8     9   ar
    26    13    14   ar
    27    14    15    1
    28    14    16   ar
    29    16    10   ar
    30     9     1   ar
    31    28    22   ar
    32     9     4   ar
@<TRIPOS>MOLECULE
*****
 29 32 0 0 0
SMALL
GASTEIGER

@<TRIPOS>ATOM
      1 N          62.3899   86.6916   11.3033 N.ar    1  UNL1       -0.2880
      2 C          63.0731   87.9090   11.8521 C.ar    1  UNL1        0.0847
      3 C          62.5561   89.1051   11.1092 C.ar    1  UNL1        0.0595
      4 C          61.5534   88.6271   10.1013 C.ar    1  UNL1        0.0391
      5 C          60.7206   89.3573    9.0897 C.ar    1  UNL1        0.0047
      6 C          59.7851   88.5958    8.1981 C.ar    1  UNL1        0.0208
      7 C          59.6824   87.1042    8.3181 C.ar    1  UNL1        0.1005
      8 N          60.5152   86.3739    9.3296 N.ar    1  UNL1       -0.2264
      9 C          61.4507   87.1354   10.2212 C.ar    1  UNL1        0.1478
     10 C          63.0433   82.4523   12.6639 C.ar    1  UNL1        0.0163
     11 C          62.5700   83.4886   13.6396 C.ar    1  UNL1        0.0028
     12 C          62.3522   84.9017   13.1860 C.ar    1  UNL1        0.0199
     13 C          62.6077   85.2785   11.7569 C.ar    1  UNL1        0.0927
     14 C          63.0810   84.2421   10.7811 C.ar    1  UNL1        0.1562
     15 F          63.3365   84.6189    9.3519 F       1  UNL1       -0.2026
     16 C          63.2988   82.8290   11.2347 C.ar    1  UNL1        0.0323
     17 O          62.6705   79.9019   12.3379 O.co2   1  UNL1       -0.5446
     18 C          63.2610   81.0392   13.1175 C.2     1  UNL1        0.0729
     19 O          64.0693   80.7634   14.3506 O.co2   1  UNL1       -0.5446
     20 C          62.9692   90.5294   11.3347 C.2     1  UNL1        0.1987
     21 O          62.5033   91.6030   10.3966 O.2     1  UNL1       -0.2865
     22 C          63.8485   90.8800   12.4984 C.ar    1  UNL1        0.0601
     23 C          65.1091   91.6622   12.2771 C.ar    1  UNL1        0.0615
     24 CL         65.4905   92.0938   10.8920 Cl      1  UNL1       -0.0821
     25 C          65.9884   92.0128   13.4406 C.ar    1  UNL1        0.0115
     26 C          65.6069   91.5813   14.8256 C.ar    1  UNL1        0.0017
     27 C          64.3463   90.7991   15.0470 C.ar    1  UNL1        0.0115
     28 C          63.4671   90.4484   13.8834 C.ar    1  UNL1        0.0615
     29 CL         62.2065   89.6663   14.1048 Cl      1  UNL1       -0.0821
@<TRIPOS>UNITY_ATOM_ATTR
17 1
charge -1
@<TRIPOS>BOND
     1    17    18   ar
     2    18    19   ar
     3    18    10    1
     4    10    11   ar
     5    11    12   ar
     6    12    13   ar
     7    13     1    1
     8     1     2   ar
     9     2     3   ar
    10     3    20    1
    11    20    21    2
    12    20    22    1
    13    22    23   ar
    14    23    24    1
    15    23    25   ar
    16    25    26   ar
    17    26    27   ar
    18    27    28   ar
    19    28    29    1
    20     3     4   ar
    21     4     5   ar
    22     5     6   ar
    23     6     7   ar
    24     7     8   ar
    25     8     9   ar
    26    13    14   ar
    27    14    15    1
    28    14    16   ar
    29    16    10   ar
    30     9     1   ar
    31    28    22   ar
    32     9     4   ar
@<TRIPOS>MOLECULE
*****
 29 32 0 0 0
SMALL
GASTEIGER

@<TRIPOS>ATOM
      1 N          62.9057   87.1206   12.2816 N.ar    1  UNL1       -0.2880
      2 C          63.6653   88.1562   13.0566 C.ar    1  UNL1        0.0847
      3 C          63.2387   89.5078   12.5656 C.ar    1  UNL1        0.0595
      4 C          62.2156   89.3076   11.4871 C.ar    1  UNL1        0.0391
      5 C          61.4448   90.2781   10.6422 C.ar    1  UNL1        0.0047
      6 C          60.4682   89.7732    9.6218 C.ar    1  UNL1        0.0208
      7 C          60.2624   88.2978    9.4463 C.ar    1  UNL1        0.1005
      8 N          61.0332   87.3273   10.2912 N.ar    1  UNL1       -0.2264
      9 C          62.0098   87.8322   11.3116 C.ar    1  UNL1        0.1478
     10 C          63.2538   82.6617   12.7793 C.ar    1  UNL1        0.0163
     11 C          62.7433   83.2350   11.4906 C.ar    1  UNL1        0.0028
     12 C          62.6273   84.7213   11.3247 C.ar    1  UNL1        0.0199
     13 C          63.0217   85.6343   12.4475 C.ar    1  UNL1        0.0927
     14 C          63.5323   85.0610   13.7363 C.ar    1  UNL1        0.1562
     15 F          63.9267   85.9741   14.8591 F       1  UNL1       -0.2026
     16 C          63.6483   83.5747   13.9022 C.ar    1  UNL1        0.0323
     17 O          63.9258   80.6038   14.2156 O.co2   1  UNL1       -0.5446
     18 C          63.3698   81.1754   12.9452 C.2     1  UNL1        0.0729
     19 O          62.9298   80.2609   11.8406 O.co2   1  UNL1       -0.5446
     20 C          63.7462   90.8280   13.0653 C.2     1  UNL1        0.1987
     21 O          63.0411   91.5254   14.1905 O.2     1  UNL1       -0.2865
     22 C          64.9591   91.4507   12.4396 C.ar    1  UNL1        0.0601
     23 C          66.2414   91.5368   13.2130 C.ar    1  UNL1        0.0615
     24 CL         66.3110   91.0001   14.6120 Cl      1  UNL1       -0.0821
     25 C          67.4542   92.1595   12.5874 C.ar    1  UNL1        0.0115
     26 C          67.3846   92.6962   11.1885 C.ar    1  UNL1        0.0017
     27 C          66.1022   92.6102   10.4151 C.ar    1  UNL1        0.0115
     28 C          64.8894   91.9874   11.0406 C.ar    1  UNL1        0.0615
     29 CL         63.6071   91.9014   10.2673 Cl      1  UNL1       -0.0821
@<TRIPOS>UNITY_ATOM_ATTR
17 1
charge -1
@<TRIPOS>BOND
     1    17    18   ar
     2    18    19   ar
     3    18    10    1
     4    10    11   ar
     5    11    12   ar
     6    12    13   ar
     7    13     1    1
     8     1     2   ar
     9     2     3   ar
    10     3    20    1
    11    20    21    2
    12    20    22    1
    13    22    23   ar
    14    23    24    1
    15    23    25   ar
    16    25    26   ar
    17    26    27   ar
    18    27    28   ar
    19    28    29    1
    20     3     4   ar
    21     4     5   ar
    22     5     6   ar
    23     6     7   ar
    24     7     8   ar
    25     8     9   ar
    26    13    14   ar
    27    14    15    1
    28    14    16   ar
    29    16    10   ar
    30     9     1   ar
    31    28    22   ar
    32     9     4   ar
@<TRIPOS>MOLECULE
*****
 29 32 0 0 0
SMALL
GASTEIGER

@<TRIPOS>ATOM
      1 N          62.9134   87.1342   12.3346 N.ar    1  UNL1       -0.2880
      2 C          63.7039   88.1574   13.0950 C.ar    1  UNL1        0.0847
      3 C          63.2642   89.5165   12.6374 C.ar    1  UNL1        0.0595
      4 C          62.2019   89.3333   11.5943 C.ar    1  UNL1        0.0391
      5 C          61.4041   90.3170   10.7907 C.ar    1  UNL1        0.0047
      6 C          60.3895   89.8282    9.8000 C.ar    1  UNL1        0.0208
      7 C          60.1726   88.3558    9.6128 C.ar    1  UNL1        0.1005
      8 N          60.9705   87.3722   10.4164 N.ar    1  UNL1       -0.2264
      9 C          61.9851   87.8609   11.4072 C.ar    1  UNL1        0.1478
     10 C          63.2649   82.6682   12.7612 C.ar    1  UNL1        0.0163
     11 C          62.8204   83.2645   11.4586 C.ar    1  UNL1        0.0028
     12 C          62.7032   84.7532   11.3164 C.ar    1  UNL1        0.0199
     13 C          63.0305   85.6455   12.4768 C.ar    1  UNL1        0.0927
     14 C          63.4750   85.0491   13.7795 C.ar    1  UNL1        0.1562
     15 F          63.8024   85.9414   14.9399 F       1  UNL1       -0.2026
     16 C          63.5922   83.5605   13.9216 C.ar    1  UNL1        0.0323
     17 O          63.9331   80.5879   14.1668 O.co2   1  UNL1       -0.5446
     18 C          63.3820   81.1795   12.9033 C.2     1  UNL1        0.0729
     19 O          62.9481   80.2826   11.7821 O.co2   1  UNL1       -0.5446
     20 C          63.7937   90.8286   13.1355 C.2     1  UNL1        0.1987
     21 O          63.1276   91.5167   14.2899 O.2     1  UNL1       -0.2865
     22 C          64.9896   91.4526   12.4791 C.ar    1  UNL1        0.0601
     23 C          64.8893   91.9707   11.0750 C.ar    1  UNL1        0.0615
     24 CL         63.5932   91.8648   10.3273 Cl      1  UNL1       -0.0821
     25 C          66.0850   92.5947   10.4186 C.ar    1  UNL1        0.0115
     26 C          67.3810   92.7005   11.1664 C.ar    1  UNL1        0.0017
     27 C          67.4813   92.1824   12.5705 C.ar    1  UNL1        0.0115
     28 C          66.2856   91.5584   13.2269 C.ar    1  UNL1        0.0615
     29 CL         66.3858   91.0403   14.6310 Cl      1  UNL1       -0.0821
@<TRIPOS>UNITY_ATOM_ATTR
17 1
charge -1
@<TRIPOS>BOND
     1    17    18   ar
     2    18    19   ar
     3    18    10    1
     4    10    11   ar
     5    11    12   ar
     6    12    13   ar
     7    13     1    1
     8     1     2   ar
     9     2     3   ar
    10     3    20    1
    11    20    21    2
    12    20    22    1
    13    22    23   ar
    14    23    24    1
    15    23    25   ar
    16    25    26   ar
    17    26    27   ar
    18    27    28   ar
    19    28    29    1
    20     3     4   ar
    21     4     5   ar
    22     5     6   ar
    23     6     7   ar
    24     7     8   ar
    25     8     9   ar
    26    13    14   ar
    27    14    15    1
    28    14    16   ar
    29    16    10   ar
    30     9     1   ar
    31    28    22   ar
    32     9     4   ar
@<TRIPOS>MOLECULE
*****
 29 32 0 0 0
SMALL
GASTEIGER

@<TRIPOS>ATOM
      1 N          63.7018   86.8778   14.0170 N.ar    1  UNL1       -0.2880
      2 C          64.0251   88.2645   13.5451 C.ar    1  UNL1        0.0847
      3 C          63.8863   89.1956   14.7129 C.ar    1  UNL1        0.0595
      4 C          63.4773   88.3845   15.9065 C.ar    1  UNL1        0.0391
      5 C          63.1939   88.7652   17.3294 C.ar    1  UNL1        0.0047
      6 C          62.7965   87.7135   18.3223 C.ar    1  UNL1        0.0208
      7 C          62.6825   86.2810   17.8922 C.ar    1  UNL1        0.1005
      8 N          62.9658   85.9002   16.4693 N.ar    1  UNL1       -0.2264
      9 C          63.3632   86.9520   15.4765 C.ar    1  UNL1        0.1478
     10 C          63.7408   83.1497   11.4971 C.ar    1  UNL1        0.0163
     11 C          62.8397   84.2921   11.1325 C.ar    1  UNL1        0.0028
     12 C          62.8267   85.5348   11.9725 C.ar    1  UNL1        0.0199
     13 C          63.7148   85.6352   13.1770 C.ar    1  UNL1        0.0927
     14 C          64.6160   84.4927   13.5417 C.ar    1  UNL1        0.1562
     15 F          65.5041   84.5931   14.7463 F       1  UNL1       -0.2026
     16 C          64.6290   83.2501   12.7017 C.ar    1  UNL1        0.0323
     17 O          64.7016   81.7939    9.5000 O.co2   1  UNL1       -0.5446
     18 C          63.7538   81.9071   10.6571 C.2     1  UNL1        0.0729
     19 O          62.8191   80.7776   10.9742 O.co2   1  UNL1       -0.5446
     20 C          64.1163   90.6777   14.6909 C.2     1  UNL1        0.1987
     21 O          63.5751   91.5371   15.7947 O.2     1  UNL1       -0.2865
     22 C          64.8874   91.3005   13.5650 C.ar    1  UNL1        0.0601
     23 C          66.3110   91.7239   13.7749 C.ar    1  UNL1        0.0615
     24 CL         66.9634   91.5246   15.1109 Cl      1  UNL1       -0.0821
     25 C          67.0821   92.3467   12.6491 C.ar    1  UNL1        0.0115
     26 C          66.4296   92.5459   11.3132 C.ar    1  UNL1        0.0017
     27 C          65.0060   92.1225   11.1033 C.ar    1  UNL1        0.0115
     28 C          64.2349   91.4998   12.2291 C.ar    1  UNL1        0.0615
     29 CL         62.8113   91.0764   12.0191 Cl      1  UNL1       -0.0821
@<TRIPOS>UNITY_ATOM_ATTR
17 1
charge -1
@<TRIPOS>BOND
     1    17    18   ar
     2    18    19   ar
     3    18    10    1
     4    10    11   ar
     5    11    12   ar
     6    12    13   ar
     7    13     1    1
     8     1     2   ar
     9     2     3   ar
    10     3    20    1
    11    20    21    2
    12    20    22    1
    13    22    23   ar
    14    23    24    1
    15    23    25   ar
    16    25    26   ar
    17    26    27   ar
    18    27    28   ar
    19    28    29    1
    20     3     4   ar
    21     4     5   ar
    22     5     6   ar
    23     6     7   ar
    24     7     8   ar
    25     8     9   ar
    26    13    14   ar
    27    14    15    1
    28    14    16   ar
    29    16    10   ar
    30     9     1   ar
    31    28    22   ar
    32     9     4   ar
@<TRIPOS>MOLECULE
*****
 29 32 0 0 0
SMALL
GASTEIGER

@<TRIPOS>ATOM
      1 N          62.3883   86.6272   11.2942 N.ar    1  UNL1       -0.2880
      2 C          63.1264   87.8172   11.8318 C.ar    1  UNL1        0.0847
      3 C          62.6413   89.0331   11.0996 C.ar    1  UNL1        0.0595
      4 C          61.6034   88.5947   10.1094 C.ar    1  UNL1        0.0391
      5 C          60.7805   89.3573    9.1139 C.ar    1  UNL1        0.0047
      6 C          59.8012   88.6329    8.2385 C.ar    1  UNL1        0.0208
      7 C          59.6448   87.1459    8.3587 C.ar    1  UNL1        0.1005
      8 N          60.4677   86.3833    9.3543 N.ar    1  UNL1       -0.2264
      9 C          61.4470   87.1077   10.2297 C.ar    1  UNL1        0.1478
     10 C          62.9067   82.3640   12.6385 C.ar    1  UNL1        0.0163
     11 C          62.5325   83.4236   13.6321 C.ar    1  UNL1        0.0028
     12 C          62.3597   84.8446   13.1840 C.ar    1  UNL1        0.0199
     13 C          62.5611   85.2062   11.7423 C.ar    1  UNL1        0.0927
     14 C          62.9352   84.1466   10.7486 C.ar    1  UNL1        0.1562
     15 F          63.1366   84.5081    9.3068 F       1  UNL1       -0.2026
     16 C          63.1080   82.7255   11.1967 C.ar    1  UNL1        0.0323
     17 O          63.4036   80.6429   14.5200 O.co2   1  UNL1       -0.5446
     18 C          63.0794   80.9430   13.0866 C.2     1  UNL1        0.0729
     19 O          62.9280   79.8222   12.1013 O.co2   1  UNL1       -0.5446
     20 C          63.1116   90.4405   11.3191 C.2     1  UNL1        0.1987
     21 O          62.9002   91.4764   10.2551 O.2     1  UNL1       -0.2865
     22 C          63.7933   90.8120   12.6026 C.ar    1  UNL1        0.0601
     23 C          63.1970   90.3986   13.9155 C.ar    1  UNL1        0.0615
     24 CL         61.9191   89.6137   13.9447 Cl      1  UNL1       -0.0821
     25 C          63.8787   90.7700   15.1989 C.ar    1  UNL1        0.0115
     26 C          65.1566   91.5549   15.1696 C.ar    1  UNL1        0.0017
     27 C          65.7528   91.9683   13.8567 C.ar    1  UNL1        0.0115
     28 C          65.0712   91.5969   12.5732 C.ar    1  UNL1        0.0615
     29 CL         65.6675   92.0103   11.2604 Cl      1  UNL1       -0.0821
@<TRIPOS>UNITY_ATOM_ATTR
17 1
charge -1
@<TRIPOS>BOND
     1    17    18   ar
     2    18    19   ar
     3    18    10    1
     4    10    11   ar
     5    11    12   ar
     6    12    13   ar
     7    13     1    1
     8     1     2   ar
     9     2     3   ar
    10     3    20    1
    11    20    21    2
    12    20    22    1
    13    22    23   ar
    14    23    24    1
    15    23    25   ar
    16    25    26   ar
    17    26    27   ar
    18    27    28   ar
    19    28    29    1
    20     3     4   ar
    21     4     5   ar
    22     5     6   ar
    23     6     7   ar
    24     7     8   ar
    25     8     9   ar
    26    13    14   ar
    27    14    15    1
    28    14    16   ar
    29    16    10   ar
    30     9     1   ar
    31    28    22   ar
    32     9     4   ar
