@<TRIPOS>MOLECULE
*****
 40 45 0 0 0
SMALL
GASTEIGER

@<TRIPOS>ATOM
      1 N          62.3104   85.8885   10.7413 N.am    1  UNL1       -0.1909
      2 C          62.4615   87.1472   11.5433 C.2     1  UNL1        0.3173
      3 O          63.2322   87.2905   12.8221 O.2     1  UNL1       -0.2516
      4 N          61.7067   88.2372   10.8419 N.am    1  UNL1       -0.2544
      5 C          61.0889   87.6523    9.6063 C.3     1  UNL1        0.1341
      6 C          60.5366   86.9309    8.4128 C.3     1  UNL1        0.0446
      7 C          59.6938   87.6681    7.4148 C.3     1  UNL1        0.0745
      8 N          59.4034   89.1267    7.6102 N.3     1  UNL1       -0.2688
      9 C          59.9557   89.8481    8.8037 C.3     1  UNL1        0.0745
     10 C          60.7985   89.1109    9.8018 C.3     1  UNL1        0.0446
     11 C          61.4620   86.2007    9.5442 C.2     1  UNL1        0.2525
     12 O          61.0578   85.2316    8.4731 O.2     1  UNL1       -0.2724
     13 C          63.1900   82.5700   12.7321 C.ar    1  UNL1        0.1400
     14 C          64.0893   81.8800   11.7497 C.ar    1  UNL1        0.0370
     15 C          64.3956   82.5262   10.4312 C.ar    1  UNL1        0.0044
     16 C          63.8026   83.8624   10.0951 C.ar    1  UNL1        0.0156
     17 C          62.9033   84.5523   11.0775 C.ar    1  UNL1        0.0652
     18 C          62.5970   83.9062   12.3960 C.ar    1  UNL1        0.0522
     19 C          61.5842   81.2008   14.2477 C.3     1  UNL1        0.2525
     20 O          62.8837   81.9238   14.0507 O.3     1  UNL1       -0.4714
     21 C          61.5900   89.6620   11.2961 C.3     1  UNL1        0.1243
     22 C          62.8206   90.4317   11.6745 C.ar    1  UNL1        0.0252
     23 C          63.3643   90.3381   13.0694 C.ar    1  UNL1       -0.0004
     24 C          64.5949   91.1078   13.4479 C.ar    1  UNL1       -0.0001
     25 C          65.2818   91.9711   12.4316 C.ar    1  UNL1        0.0023
     26 C          64.7381   92.0647   11.0367 C.ar    1  UNL1        0.0294
     27 C          63.5075   91.2950   10.6582 C.ar    1  UNL1        0.1377
     28 F          62.9638   91.3886    9.2633 F       1  UNL1       -0.2044
     29 C          58.5605   89.8639    6.6121 C.3     1  UNL1        0.0991
     30 C          59.2130   90.7023    5.5532 C.ar    1  UNL1       -0.0060
     31 C          58.3923   91.6651    4.7473 C.ar    1  UNL1       -0.0014
     32 C          59.0449   92.5036    3.6884 C.ar    1  UNL1        0.0173
     33 C          60.5181   92.3791    3.4354 C.ar    1  UNL1        0.0655
     34 C          61.3388   91.4163    4.2412 C.ar    1  UNL1        0.0173
     35 C          60.6863   90.5779    5.3001 C.ar    1  UNL1       -0.0014
     36 N          61.1706   93.2175    2.3765 N.ar    1  UNL1       -0.2864
     37 C          62.4566   92.9032    1.6712 C.ar    1  UNL1        0.1022
     38 C          62.7325   94.0089    0.6958 C.ar    1  UNL1        0.1196
     39 N          61.6170   95.0065    0.7982 N.ar    1  UNL1       -0.2220
     40 C          60.6517   94.5174    1.8369 C.ar    1  UNL1        0.1828
@<TRIPOS>BOND
     1    19    20    1
     2    20    13    1
     3    13    14   ar
     4    14    15   ar
     5    15    16   ar
     6    16    17   ar
     7    17     1    1
     8     1     2   am
     9     2     3    2
    10     2     4   am
    11     4    21    1
    12    21    22    1
    13    22    23   ar
    14    23    24   ar
    15    24    25   ar
    16    25    26   ar
    17    26    27   ar
    18    27    28    1
    19     4     5    1
    20     5     6    1
    21     6     7    1
    22     7     8    1
    23     8    29    1
    24    29    30    1
    25    30    31   ar
    26    31    32   ar
    27    32    33   ar
    28    33    36    1
    29    36    37   ar
    30    37    38   ar
    31    38    39   ar
    32    39    40   ar
    33    33    34   ar
    34    34    35   ar
    35     8     9    1
    36     9    10    1
    37     5    11    1
    38    11    12    2
    39    17    18   ar
    40    18    13   ar
    41    11     1   am
    42    27    22   ar
    43    10     5    1
    44    35    30   ar
    45    40    36   ar
@<TRIPOS>MOLECULE
*****
 40 45 0 0 0
SMALL
GASTEIGER

@<TRIPOS>ATOM
      1 N          63.1978   89.4209   12.3839 N.am    1  UNL1       -0.1909
      2 C          63.0059   87.9357   12.4702 C.2     1  UNL1        0.3173
      3 O          63.6315   87.0233   13.4831 O.2     1  UNL1       -0.2516
      4 N          62.0787   87.5232   11.3657 N.am    1  UNL1       -0.2544
      5 C          61.6974   88.7534   10.5967 C.3     1  UNL1        0.1341
      6 C          61.4072   90.0640    9.9273 C.3     1  UNL1        0.0446
      7 C          60.4945   90.1127    8.7379 C.3     1  UNL1        0.0745
      8 N          59.8721   88.8509    8.2179 N.3     1  UNL1       -0.2688
      9 C          60.1623   87.5403    8.8873 C.3     1  UNL1        0.0745
     10 C          61.0749   87.4916   10.0767 C.3     1  UNL1        0.0446
     11 C          62.3890   89.9263   11.2260 C.2     1  UNL1        0.2525
     12 O          62.2894   91.3538   10.7764 O.2     1  UNL1       -0.2724
     13 C          65.8750   92.0717   13.6311 C.ar    1  UNL1        0.1400
     14 C          65.7511   91.9215   15.1184 C.ar    1  UNL1        0.0370
     15 C          64.7761   90.9377   15.6941 C.ar    1  UNL1        0.0044
     16 C          63.9250   90.1042   14.7826 C.ar    1  UNL1        0.0156
     17 C          64.0489   90.2544   13.2954 C.ar    1  UNL1        0.0652
     18 C          65.0239   91.2382   12.7196 C.ar    1  UNL1        0.0522
     19 C          66.3964   94.0438   12.0220 C.3     1  UNL1        0.2525
     20 O          66.8500   93.0555   13.0553 O.3     1  UNL1       -0.4714
     21 C          61.6142   86.1258   11.0801 C.3     1  UNL1        0.1243
     22 C          62.5782   84.9806   11.1766 C.ar    1  UNL1        0.0252
     23 C          62.8062   84.3012   12.4943 C.ar    1  UNL1       -0.0004
     24 C          63.7702   83.1560   12.5909 C.ar    1  UNL1       -0.0001
     25 C          64.5061   82.6902   11.3697 C.ar    1  UNL1        0.0023
     26 C          64.2781   83.3695   10.0519 C.ar    1  UNL1        0.0294
     27 C          63.3141   84.5147    9.9554 C.ar    1  UNL1        0.1377
     28 F          63.0861   85.1940    8.6376 F       1  UNL1       -0.2044
     29 C          58.9594   88.8997    7.0285 C.3     1  UNL1        0.0991
     30 C          59.1366   89.9679    5.9905 C.ar    1  UNL1       -0.0060
     31 C          60.4999   90.2544    5.4344 C.ar    1  UNL1       -0.0014
     32 C          60.6771   91.3227    4.3963 C.ar    1  UNL1        0.0173
     33 C          59.4910   92.1043    3.9144 C.ar    1  UNL1        0.0655
     34 C          58.1277   91.8177    4.4705 C.ar    1  UNL1        0.0173
     35 C          57.9505   90.7495    5.5085 C.ar    1  UNL1       -0.0014
     36 N          59.6683   93.1724    2.8763 N.ar    1  UNL1       -0.2864
     37 C          59.4307   93.0184    1.4033 C.ar    1  UNL1        0.1022
     38 C          59.7298   94.3330    0.7456 C.ar    1  UNL1        0.1196
     39 N          60.1522   95.2995    1.8122 N.ar    1  UNL1       -0.2220
     40 C          60.1142   94.5822    3.1291 C.ar    1  UNL1        0.1828
@<TRIPOS>BOND
     1    19    20    1
     2    20    13    1
     3    13    14   ar
     4    14    15   ar
     5    15    16   ar
     6    16    17   ar
     7    17     1    1
     8     1     2   am
     9     2     3    2
    10     2     4   am
    11     4    21    1
    12    21    22    1
    13    22    23   ar
    14    23    24   ar
    15    24    25   ar
    16    25    26   ar
    17    26    27   ar
    18    27    28    1
    19     4     5    1
    20     5     6    1
    21     6     7    1
    22     7     8    1
    23     8    29    1
    24    29    30    1
    25    30    31   ar
    26    31    32   ar
    27    32    33   ar
    28    33    36    1
    29    36    37   ar
    30    37    38   ar
    31    38    39   ar
    32    39    40   ar
    33    33    34   ar
    34    34    35   ar
    35     8     9    1
    36     9    10    1
    37     5    11    1
    38    11    12    2
    39    17    18   ar
    40    18    13   ar
    41    11     1   am
    42    27    22   ar
    43    10     5    1
    44    35    30   ar
    45    40    36   ar
@<TRIPOS>MOLECULE
*****
 40 45 0 0 0
SMALL
GASTEIGER

@<TRIPOS>ATOM
      1 N          62.8591   84.1586   12.9861 N.am    1  UNL1       -0.1909
      2 C          62.3915   84.7961   11.7113 C.2     1  UNL1        0.3173
      3 O          61.7510   84.0878   10.5547 O.2     1  UNL1       -0.2516
      4 N          62.6769   86.2662   11.7964 N.am    1  UNL1       -0.2544
      5 C          63.3209   86.5374   13.1238 C.3     1  UNL1        0.1341
      6 C          63.9519   86.6547   14.4795 C.3     1  UNL1        0.0446
      7 C          64.4039   87.9934   14.9831 C.3     1  UNL1        0.0745
      8 N          64.2249   89.2147   14.1309 N.3     1  UNL1       -0.2688
      9 C          63.5940   89.0975   12.7752 C.3     1  UNL1        0.0745
     10 C          63.1420   87.7588   12.2716 C.3     1  UNL1        0.0446
     11 C          63.4335   85.2348   13.8591 C.2     1  UNL1        0.2525
     12 O          64.0179   85.0423   15.2270 O.2     1  UNL1       -0.2724
     13 C          61.3647   80.6520   14.0907 C.ar    1  UNL1        0.1400
     14 C          62.5866   79.7855   14.0117 C.ar    1  UNL1        0.0370
     15 C          63.8993   80.3768   13.5908 C.ar    1  UNL1        0.0044
     16 C          63.9901   81.8345   13.2490 C.ar    1  UNL1        0.0156
     17 C          62.7683   82.7009   13.3280 C.ar    1  UNL1        0.0652
     18 C          61.4556   82.1097   13.7489 C.ar    1  UNL1        0.0522
     19 C          58.7671   80.7046   14.0817 C.3     1  UNL1        0.2525
     20 O          60.0520   80.0608   14.5116 O.3     1  UNL1       -0.4714
     21 C          62.3719   87.2861   10.7397 C.3     1  UNL1        0.1243
     22 C          61.4297   86.9495    9.6221 C.ar    1  UNL1        0.0252
     23 C          60.0136   87.4428    9.6609 C.ar    1  UNL1       -0.0004
     24 C          59.0713   87.1062    8.5434 C.ar    1  UNL1       -0.0001
     25 C          59.5451   86.2765    7.3871 C.ar    1  UNL1        0.0023
     26 C          60.9611   85.7832    7.3483 C.ar    1  UNL1        0.0294
     27 C          61.9034   86.1197    8.4659 C.ar    1  UNL1        0.1377
     28 F          63.3194   85.6265    8.4271 F       1  UNL1       -0.2044
     29 C          64.6769   90.5535   14.6346 C.3     1  UNL1        0.0991
     30 C          65.1591   91.5945   13.6684 C.ar    1  UNL1       -0.0060
     31 C          66.1276   92.6467   14.1210 C.ar    1  UNL1       -0.0014
     32 C          66.6097   93.6879   13.1547 C.ar    1  UNL1        0.0173
     33 C          66.1234   93.6767   11.7358 C.ar    1  UNL1        0.0655
     34 C          65.1550   92.6245   11.2831 C.ar    1  UNL1        0.0173
     35 C          64.6728   91.5834   12.2494 C.ar    1  UNL1       -0.0014
     36 N          66.6056   94.7178   10.7696 N.ar    1  UNL1       -0.2864
     37 C          66.3858   96.1971   10.8851 C.ar    1  UNL1        0.1022
     38 C          67.0366   96.8560    9.7052 C.ar    1  UNL1        0.1196
     39 N          67.6586   95.7838    8.8603 N.ar    1  UNL1       -0.2220
     40 C          67.3922   94.4624    9.5182 C.ar    1  UNL1        0.1828
@<TRIPOS>BOND
     1    19    20    1
     2    20    13    1
     3    13    14   ar
     4    14    15   ar
     5    15    16   ar
     6    16    17   ar
     7    17     1    1
     8     1     2   am
     9     2     3    2
    10     2     4   am
    11     4    21    1
    12    21    22    1
    13    22    23   ar
    14    23    24   ar
    15    24    25   ar
    16    25    26   ar
    17    26    27   ar
    18    27    28    1
    19     4     5    1
    20     5     6    1
    21     6     7    1
    22     7     8    1
    23     8    29    1
    24    29    30    1
    25    30    31   ar
    26    31    32   ar
    27    32    33   ar
    28    33    36    1
    29    36    37   ar
    30    37    38   ar
    31    38    39   ar
    32    39    40   ar
    33    33    34   ar
    34    34    35   ar
    35     8     9    1
    36     9    10    1
    37     5    11    1
    38    11    12    2
    39    17    18   ar
    40    18    13   ar
    41    11     1   am
    42    27    22   ar
    43    10     5    1
    44    35    30   ar
    45    40    36   ar
@<TRIPOS>MOLECULE
*****
 40 45 0 0 0
SMALL
GASTEIGER

@<TRIPOS>ATOM
      1 N          62.7788   83.9747   12.6772 N.am    1  UNL1       -0.1909
      2 C          62.3256   84.6969   11.4431 C.2     1  UNL1        0.3173
      3 O          61.6663   84.0735   10.2487 O.2     1  UNL1       -0.2516
      4 N          62.6474   86.1521   11.6131 N.am    1  UNL1       -0.2544
      5 C          63.2995   86.3293   12.9523 C.3     1  UNL1        0.1341
      6 C          63.9348   86.3516   14.3109 C.3     1  UNL1        0.0446
      7 C          64.4204   87.6470   14.8906 C.3     1  UNL1        0.0745
      8 N          64.2707   88.9202   14.1117 N.3     1  UNL1       -0.2688
      9 C          63.6354   88.8979   12.7531 C.3     1  UNL1        0.0745
     10 C          63.1498   87.6025   12.1734 C.3     1  UNL1        0.0446
     11 C          63.3807   84.9836   13.6100 C.2     1  UNL1        0.2525
     12 O          63.9618   84.6971   14.9628 O.2     1  UNL1       -0.2724
     13 C          62.6763   80.0559   12.0590 C.ar    1  UNL1        0.1400
     14 C          62.3994   79.5573   13.4464 C.ar    1  UNL1        0.0370
     15 C          62.2491   80.5311   14.5773 C.ar    1  UNL1        0.0044
     16 C          62.3756   82.0036   14.3209 C.ar    1  UNL1        0.0156
     17 C          62.6524   82.5022   12.9336 C.ar    1  UNL1        0.0652
     18 C          62.8027   81.5284   11.8027 C.ar    1  UNL1        0.0522
     19 C          62.8155   79.5718    9.5102 C.3     1  UNL1        0.2525
     20 O          62.8266   79.0821   10.9281 O.3     1  UNL1       -0.4714
     21 C          62.3664   87.2393   10.6186 C.3     1  UNL1        0.1243
     22 C          61.3355   87.0295    9.5493 C.ar    1  UNL1        0.0252
     23 C          59.9640   87.6167    9.7043 C.ar    1  UNL1       -0.0004
     24 C          58.9331   87.4070    8.6351 C.ar    1  UNL1       -0.0001
     25 C          59.2737   86.6101    7.4108 C.ar    1  UNL1        0.0023
     26 C          60.6452   86.0229    7.2558 C.ar    1  UNL1        0.0294
     27 C          61.6761   86.2326    8.3250 C.ar    1  UNL1        0.1377
     28 F          63.0477   85.6454    8.1700 F       1  UNL1       -0.2044
     29 C          64.7563   90.2156   14.6914 C.3     1  UNL1        0.0991
     30 C          65.1970   91.3252   13.7834 C.ar    1  UNL1       -0.0060
     31 C          64.4751   91.5684   12.4913 C.ar    1  UNL1       -0.0014
     32 C          64.9158   92.6781   11.5832 C.ar    1  UNL1        0.0173
     33 C          66.0784   93.5445   11.9674 C.ar    1  UNL1        0.0655
     34 C          66.8003   93.3014   13.2596 C.ar    1  UNL1        0.0173
     35 C          66.3596   92.1917   14.1676 C.ar    1  UNL1       -0.0014
     36 N          66.5190   94.6541   11.0594 N.ar    1  UNL1       -0.2864
     37 C          67.3886   94.5077    9.8460 C.ar    1  UNL1        0.1022
     38 C          67.5745   95.8681    9.2420 C.ar    1  UNL1        0.1196
     39 N          66.8198   96.8553   10.0821 N.ar    1  UNL1       -0.2220
     40 C          66.1675   96.1051   11.2053 C.ar    1  UNL1        0.1828
@<TRIPOS>BOND
     1    19    20    1
     2    20    13    1
     3    13    14   ar
     4    14    15   ar
     5    15    16   ar
     6    16    17   ar
     7    17     1    1
     8     1     2   am
     9     2     3    2
    10     2     4   am
    11     4    21    1
    12    21    22    1
    13    22    23   ar
    14    23    24   ar
    15    24    25   ar
    16    25    26   ar
    17    26    27   ar
    18    27    28    1
    19     4     5    1
    20     5     6    1
    21     6     7    1
    22     7     8    1
    23     8    29    1
    24    29    30    1
    25    30    31   ar
    26    31    32   ar
    27    32    33   ar
    28    33    36    1
    29    36    37   ar
    30    37    38   ar
    31    38    39   ar
    32    39    40   ar
    33    33    34   ar
    34    34    35   ar
    35     8     9    1
    36     9    10    1
    37     5    11    1
    38    11    12    2
    39    17    18   ar
    40    18    13   ar
    41    11     1   am
    42    27    22   ar
    43    10     5    1
    44    35    30   ar
    45    40    36   ar
