@<TRIPOS>MOLECULE
*****
 34 36 0 0 0
SMALL
GASTEIGER

@<TRIPOS>ATOM
      1 C          63.8569   87.2354   15.3761 C.ar    1  UNL1        0.1409
      2 N          64.2519   88.1940   14.2920 N.ar    1  UNL1       -0.1984
      3 C          63.8947   89.6462   14.4082 C.ar    1  UNL1        0.2214
      4 N          63.1426   90.1399   15.6086 N.ar    1  UNL1       -0.2119
      5 C          62.7477   89.1813   16.6926 C.ar    1  UNL1        0.1091
      6 C          63.1049   87.7291   16.5763 C.ar    1  UNL1        0.1040
      7 N          64.2897   90.6048   13.3242 N.pl3   1  UNL1       -0.2768
      8 C          63.5727   90.5840   12.0069 C.3     1  UNL1        0.0937
      9 C          63.9676   91.5426   10.9228 C.3     1  UNL1        0.0229
     10 C          65.0795   92.5220   11.1561 C.3     1  UNL1        0.0190
     11 C          65.7964   92.5428   12.4736 C.3     1  UNL1        0.0710
     12 N          66.9083   93.5223   12.7069 N.3     1  UNL1       -0.3208
     13 C          65.4015   91.5843   13.5576 C.3     1  UNL1        0.1090
     14 H          67.0411   94.0914   11.8710 H       1  UNL1        0.1189
     15 H          67.7693   93.0162   12.9140 H       1  UNL1        0.1189
     16 C          62.7099   86.7705   17.6604 C.2     1  UNL1        0.2470
     17 N          62.7514   87.2032   19.0960 N.am    1  UNL1       -0.3252
     18 O          62.2735   85.3791   17.3088 O.2     1  UNL1       -0.2702
     19 H          63.0379   88.1165   19.3267 H       1  UNL1        0.1453
     20 H          62.4922   86.5741   19.8075 H       1  UNL1        0.1453
     21 N          64.2141   85.7832   15.2598 N.pl3   1  UNL1       -0.2976
     22 H          64.8657   85.3853   15.8813 H       1  UNL1        0.1536
     23 C          62.5736   82.6678   13.4287 C.ar    1  UNL1        0.0594
     24 C          63.2093   83.5137   14.4918 C.ar    1  UNL1        0.0293
     25 C          63.5784   84.9373   14.1966 C.ar    1  UNL1        0.0517
     26 C          63.3118   85.5150   12.8382 C.ar    1  UNL1        0.0293
     27 C          62.6761   84.6691   11.7751 C.ar    1  UNL1        0.0594
     28 N          62.3070   83.2455   12.0703 N.ar    1  UNL1       -0.2539
     29 C          60.8032   80.9028   14.1360 C.3     1  UNL1        0.0063
     30 C          62.2044   81.2442   13.7239 C.3     1  UNL1        0.0403
     31 C          63.2366   80.1621   13.6071 C.3     1  UNL1        0.0063
     32 C          62.4095   85.2467   10.4167 C.3     1  UNL1        0.0403
     33 C          63.2205   84.7965    9.2379 C.3     1  UNL1        0.0063
     34 C          61.3319   86.2746   10.2371 C.3     1  UNL1        0.0063
@<TRIPOS>BOND
     1    29    30    1
     2    30    31    1
     3    30    23    1
     4    23    24   ar
     5    24    25   ar
     6    25    21    1
     7    21     1    1
     8     1     2   ar
     9     2     3   ar
    10     3     7    1
    11     7     8    1
    12     8     9    1
    13     9    10    1
    14    10    11    1
    15    11    12    1
    16    11    13    1
    17     3     4   ar
    18     4     5   ar
    19     5     6   ar
    20     6    16    1
    21    16    17   am
    22    16    18    2
    23    25    26   ar
    24    26    27   ar
    25    27    32    1
    26    32    33    1
    27    32    34    1
    28    27    28   ar
    29    28    23   ar
    30     6     1   ar
    31    13     7    1
    32    21    22    1
    33    12    14    1
    34    12    15    1
    35    17    19    1
    36    17    20    1
@<TRIPOS>MOLECULE
*****
 34 36 0 0 0
SMALL
GASTEIGER

@<TRIPOS>ATOM
      1 C          63.8613   87.2304   15.3918 C.ar    1  UNL1        0.1409
      2 N          64.2646   88.1932   14.3145 N.ar    1  UNL1       -0.1984
      3 C          63.9071   89.6451   14.4340 C.ar    1  UNL1        0.2214
      4 N          63.1463   90.1341   15.6307 N.ar    1  UNL1       -0.2119
      5 C          62.7430   89.1714   16.7079 C.ar    1  UNL1        0.1091
      6 C          63.1005   87.7195   16.5884 C.ar    1  UNL1        0.1040
      7 N          64.3104   90.6078   13.3568 N.pl3   1  UNL1       -0.2768
      8 C          63.5986   90.5972   12.0365 C.3     1  UNL1        0.0937
      9 C          64.0018   91.5600   10.9592 C.3     1  UNL1        0.0229
     10 C          65.1169   92.5334   11.2023 C.3     1  UNL1        0.0190
     11 C          65.8287   92.5440   12.5227 C.3     1  UNL1        0.0710
     12 N          66.9438   93.5174   12.7657 N.3     1  UNL1       -0.3208
     13 C          65.4255   91.5812   13.5999 C.3     1  UNL1        0.1090
     14 H          67.0824   94.0905   11.9334 H       1  UNL1        0.1189
     15 H          67.8019   93.0065   12.9735 H       1  UNL1        0.1189
     16 C          62.6972   86.7567   17.6657 C.2     1  UNL1        0.2470
     17 N          62.7327   87.1822   19.1036 N.am    1  UNL1       -0.3252
     18 O          62.2584   85.3684   17.3050 O.2     1  UNL1       -0.2702
     19 H          63.0208   88.0934   19.3404 H       1  UNL1        0.1453
     20 H          62.4680   86.5503   19.8106 H       1  UNL1        0.1453
     21 N          64.2187   85.7785   15.2723 N.pl3   1  UNL1       -0.2976
     22 H          64.8692   85.3790   15.8940 H       1  UNL1        0.1536
     23 C          62.6918   84.6722   11.7803 C.ar    1  UNL1        0.0594
     24 C          63.3254   85.5152   12.8469 C.ar    1  UNL1        0.0293
     25 C          63.5850   84.9354   14.2057 C.ar    1  UNL1        0.0517
     26 C          63.2110   83.5125   14.4979 C.ar    1  UNL1        0.0293
     27 C          62.5773   82.6695   13.4313 C.ar    1  UNL1        0.0594
     28 N          62.3177   83.2493   12.0725 N.ar    1  UNL1       -0.2539
     29 C          63.2184   84.7711    9.2381 C.3     1  UNL1        0.0063
     30 C          62.4321   85.2520   10.4215 C.3     1  UNL1        0.0403
     31 C          61.3863   86.3128   10.2460 C.3     1  UNL1        0.0063
     32 C          62.2032   81.2465   13.7235 C.3     1  UNL1        0.0403
     33 C          63.2356   80.1633   13.6202 C.3     1  UNL1        0.0063
     34 C          60.7967   80.9069   14.1189 C.3     1  UNL1        0.0063
@<TRIPOS>BOND
     1    29    30    1
     2    30    31    1
     3    30    23    1
     4    23    24   ar
     5    24    25   ar
     6    25    21    1
     7    21     1    1
     8     1     2   ar
     9     2     3   ar
    10     3     7    1
    11     7     8    1
    12     8     9    1
    13     9    10    1
    14    10    11    1
    15    11    12    1
    16    11    13    1
    17     3     4   ar
    18     4     5   ar
    19     5     6   ar
    20     6    16    1
    21    16    17   am
    22    16    18    2
    23    25    26   ar
    24    26    27   ar
    25    27    32    1
    26    32    33    1
    27    32    34    1
    28    27    28   ar
    29    28    23   ar
    30     6     1   ar
    31    13     7    1
    32    21    22    1
    33    12    14    1
    34    12    15    1
    35    17    19    1
    36    17    20    1
@<TRIPOS>MOLECULE
*****
 34 36 0 0 0
SMALL
GASTEIGER

@<TRIPOS>ATOM
      1 C          63.4851   90.6971   12.6619 C.ar    1  UNL1        0.1409
      2 N          64.1667   91.6218   11.6972 N.ar    1  UNL1       -0.1984
      3 C          65.5621   92.0978   11.9733 C.ar    1  UNL1        0.2214
      4 N          66.2759   91.6492   13.2140 N.ar    1  UNL1       -0.2119
      5 C          65.5943   90.7245   14.1786 C.ar    1  UNL1        0.1091
      6 C          64.1989   90.2485   13.9025 C.ar    1  UNL1        0.1040
      7 N          66.2437   93.0225   11.0088 N.pl3   1  UNL1       -0.2768
      8 C          67.3748   92.5208   10.1610 C.3     1  UNL1        0.0937
      9 C          68.0565   93.4455    9.1964 C.3     1  UNL1        0.0229
     10 C          67.6070   94.8718    9.0796 C.3     1  UNL1        0.0190
     11 C          66.4758   95.3734    9.9275 C.3     1  UNL1        0.0710
     12 N          66.0262   96.7997    9.8107 N.3     1  UNL1       -0.3208
     13 C          65.7941   94.4487   10.8920 C.3     1  UNL1        0.1090
     14 H          66.5953   97.2795    9.1134 H       1  UNL1        0.1189
     15 H          66.1307   97.2640   10.7128 H       1  UNL1        0.1189
     16 C          63.5172   89.3238   14.8671 C.2     1  UNL1        0.2470
     17 N          64.0546   87.9408   15.0874 N.am    1  UNL1       -0.3252
     18 O          62.2983   89.7822   15.6114 O.2     1  UNL1       -0.2702
     19 H          64.8547   87.6400   14.5989 H       1  UNL1        0.1453
     20 H          63.6073   87.3340   15.7205 H       1  UNL1        0.1453
     21 N          62.0896   90.2211   12.3858 N.pl3   1  UNL1       -0.2976
     22 H          61.3207   90.7011   12.7700 H       1  UNL1        0.1536
     23 C          60.7664   87.9031    9.4487 C.ar    1  UNL1        0.0594
     24 C          60.9903   89.1105   10.3102 C.ar    1  UNL1        0.0293
     25 C          61.8658   89.0136   11.5243 C.ar    1  UNL1        0.0517
     26 C          62.5174   87.7094   11.8770 C.ar    1  UNL1        0.0293
     27 C          62.2935   86.5021   11.0156 C.ar    1  UNL1        0.0594
     28 N          61.4180   86.5989    9.8014 N.ar    1  UNL1       -0.2539
     29 C          59.1545   86.7894    7.7425 C.3     1  UNL1        0.0063
     30 C          59.8909   88.0000    8.2346 C.3     1  UNL1        0.0403
     31 C          59.7519   89.3073    7.5126 C.3     1  UNL1        0.0063
     32 C          62.9451   85.1978   11.3683 C.3     1  UNL1        0.0403
     33 C          63.3203   84.2299   10.2855 C.3     1  UNL1        0.0063
     34 C          63.2215   84.8615   12.8037 C.3     1  UNL1        0.0063
@<TRIPOS>BOND
     1    29    30    1
     2    30    31    1
     3    30    23    1
     4    23    24   ar
     5    24    25   ar
     6    25    21    1
     7    21     1    1
     8     1     2   ar
     9     2     3   ar
    10     3     7    1
    11     7     8    1
    12     8     9    1
    13     9    10    1
    14    10    11    1
    15    11    12    1
    16    11    13    1
    17     3     4   ar
    18     4     5   ar
    19     5     6   ar
    20     6    16    1
    21    16    17   am
    22    16    18    2
    23    25    26   ar
    24    26    27   ar
    25    27    32    1
    26    32    33    1
    27    32    34    1
    28    27    28   ar
    29    28    23   ar
    30     6     1   ar
    31    13     7    1
    32    21    22    1
    33    12    14    1
    34    12    15    1
    35    17    19    1
    36    17    20    1
@<TRIPOS>MOLECULE
*****
 34 36 0 0 0
SMALL
GASTEIGER

@<TRIPOS>ATOM
      1 C          63.4918   90.6833   12.6920 C.ar    1  UNL1        0.1409
      2 N          64.1750   91.6070   11.7275 N.ar    1  UNL1       -0.1984
      3 C          65.5707   92.0817   12.0044 C.ar    1  UNL1        0.2214
      4 N          66.2833   91.6326   13.2457 N.ar    1  UNL1       -0.2119
      5 C          65.6001   90.7089   14.2100 C.ar    1  UNL1        0.1091
      6 C          64.2044   90.2343   13.9332 C.ar    1  UNL1        0.1040
      7 N          66.2539   93.0054   11.0401 N.pl3   1  UNL1       -0.2768
      8 C          67.3856   92.5026   10.1937 C.3     1  UNL1        0.0937
      9 C          68.0689   93.4263    9.2293 C.3     1  UNL1        0.0229
     10 C          67.6204   94.8528    9.1113 C.3     1  UNL1        0.0190
     11 C          66.4886   95.3556    9.9578 C.3     1  UNL1        0.0710
     12 N          66.0401   96.7821    9.8398 N.3     1  UNL1       -0.3208
     13 C          65.8054   94.4319   10.9221 C.3     1  UNL1        0.1090
     14 H          66.6103   97.2612    9.1429 H       1  UNL1        0.1189
     15 H          66.1440   97.2469   10.7419 H       1  UNL1        0.1189
     16 C          63.5212   89.3105   14.8976 C.2     1  UNL1        0.2470
     17 N          64.0386   87.9166   15.0955 N.am    1  UNL1       -0.3252
     18 O          62.3206   89.7808   15.6640 O.2     1  UNL1       -0.2702
     19 H          64.8266   87.6080   14.5925 H       1  UNL1        0.1453
     20 H          63.5902   87.3103   15.7285 H       1  UNL1        0.1453
     21 N          62.0961   90.2086   12.4151 N.pl3   1  UNL1       -0.2976
     22 H          61.3277   90.6859   12.8036 H       1  UNL1        0.1536
     23 C          62.3006   86.4990   11.0197 C.ar    1  UNL1        0.0594
     24 C          62.5254   87.7009   11.8884 C.ar    1  UNL1        0.0293
     25 C          61.8712   89.0066   11.5463 C.ar    1  UNL1        0.0517
     26 C          60.9921   89.1105   10.3353 C.ar    1  UNL1        0.0293
     27 C          60.7673   87.9085    9.4666 C.ar    1  UNL1        0.0594
     28 N          61.4215   86.6028    9.8087 N.ar    1  UNL1       -0.2539
     29 C          63.2036   84.8323   12.7963 C.3     1  UNL1        0.0063
     30 C          62.9548   85.1933   11.3619 C.3     1  UNL1        0.0403
     31 C          63.3601   84.2485   10.2696 C.3     1  UNL1        0.0063
     32 C          59.8882   88.0123    8.2555 C.3     1  UNL1        0.0403
     33 C          59.1390   86.8081    7.7672 C.3     1  UNL1        0.0063
     34 C          59.7583   89.3203    7.5329 C.3     1  UNL1        0.0063
@<TRIPOS>BOND
     1    29    30    1
     2    30    31    1
     3    30    23    1
     4    23    24   ar
     5    24    25   ar
     6    25    21    1
     7    21     1    1
     8     1     2   ar
     9     2     3   ar
    10     3     7    1
    11     7     8    1
    12     8     9    1
    13     9    10    1
    14    10    11    1
    15    11    12    1
    16    11    13    1
    17     3     4   ar
    18     4     5   ar
    19     5     6   ar
    20     6    16    1
    21    16    17   am
    22    16    18    2
    23    25    26   ar
    24    26    27   ar
    25    27    32    1
    26    32    33    1
    27    32    34    1
    28    27    28   ar
    29    28    23   ar
    30     6     1   ar
    31    13     7    1
    32    21    22    1
    33    12    14    1
    34    12    15    1
    35    17    19    1
    36    17    20    1
@<TRIPOS>MOLECULE
*****
 34 36 0 0 0
SMALL
GASTEIGER

@<TRIPOS>ATOM
      1 C          62.9244   89.5330   12.2256 C.ar    1  UNL1        0.1409
      2 N          63.3970   88.3984   13.0856 N.ar    1  UNL1       -0.1984
      3 C          63.1797   86.9815   12.6438 C.ar    1  UNL1        0.2214
      4 N          62.4898   86.6991   11.3421 N.ar    1  UNL1       -0.2119
      5 C          62.0172   87.8337   10.4823 C.ar    1  UNL1        0.1091
      6 C          62.2345   89.2506   10.9240 C.ar    1  UNL1        0.1040
      7 N          63.6524   85.8470   13.5037 N.pl3   1  UNL1       -0.2768
      8 C          64.2332   86.1243   14.8585 C.3     1  UNL1        0.0937
      9 C          64.7059   84.9897   15.7185 C.3     1  UNL1        0.0229
     10 C          64.5976   83.5779   15.2236 C.3     1  UNL1        0.0190
     11 C          64.0167   83.3006   13.8686 C.3     1  UNL1        0.0710
     12 N          63.9084   81.8888   13.3737 N.3     1  UNL1       -0.3208
     13 C          63.5441   84.4351   13.0088 C.3     1  UNL1        0.1090
     14 H          64.2738   81.2514   14.0813 H       1  UNL1        0.1189
     15 H          64.4478   81.7876   12.5139 H       1  UNL1        0.1189
     16 C          61.7618   90.3851   10.0640 C.2     1  UNL1        0.2470
     17 N          60.3188   90.4724    9.6641 N.am    1  UNL1       -0.3252
     18 O          62.7323   91.4323    9.6040 O.2     1  UNL1       -0.2702
     19 H          59.6819   89.7851    9.9660 H       1  UNL1        0.1453
     20 H          60.0086   91.2171    9.0997 H       1  UNL1        0.1453
     21 N          63.1417   90.9499   12.6673 N.pl3   1  UNL1       -0.2976
     22 H          62.3769   91.4980   12.9571 H       1  UNL1        0.1536
     23 C          66.5432   92.5354   11.3765 C.ar    1  UNL1        0.0594
     24 C          65.1606   91.9536   11.3764 C.ar    1  UNL1        0.0293
     25 C          64.5243   91.5318   12.6675 C.ar    1  UNL1        0.0517
     26 C          65.2704   91.6918   13.9589 C.ar    1  UNL1        0.0293
     27 C          66.6530   92.2736   13.9590 C.ar    1  UNL1        0.0594
     28 N          67.2893   92.6955   12.6679 N.ar    1  UNL1       -0.2539
     29 C          68.2209   92.0892    9.4437 C.3     1  UNL1        0.0063
     30 C          67.1795   92.9573   10.0854 C.3     1  UNL1        0.0403
     31 C          66.7744   94.2472    9.4358 C.3     1  UNL1        0.0063
     32 C          67.3992   92.4337   15.2504 C.3     1  UNL1        0.0403
     33 C          66.6456   92.5715   16.5400 C.3     1  UNL1        0.0063
     34 C          68.8990   92.4559   15.2521 C.3     1  UNL1        0.0063
@<TRIPOS>BOND
     1    29    30    1
     2    30    31    1
     3    30    23    1
     4    23    24   ar
     5    24    25   ar
     6    25    21    1
     7    21     1    1
     8     1     2   ar
     9     2     3   ar
    10     3     7    1
    11     7     8    1
    12     8     9    1
    13     9    10    1
    14    10    11    1
    15    11    12    1
    16    11    13    1
    17     3     4   ar
    18     4     5   ar
    19     5     6   ar
    20     6    16    1
    21    16    17   am
    22    16    18    2
    23    25    26   ar
    24    26    27   ar
    25    27    32    1
    26    32    33    1
    27    32    34    1
    28    27    28   ar
    29    28    23   ar
    30     6     1   ar
    31    13     7    1
    32    21    22    1
    33    12    14    1
    34    12    15    1
    35    17    19    1
    36    17    20    1
@<TRIPOS>MOLECULE
*****
 34 36 0 0 0
SMALL
GASTEIGER

@<TRIPOS>ATOM
      1 C          62.9197   89.5359   12.2060 C.ar    1  UNL1        0.1409
      2 N          63.3931   88.4052   13.0707 N.ar    1  UNL1       -0.1984
      3 C          63.1754   86.9863   12.6356 C.ar    1  UNL1        0.2214
      4 N          62.4842   86.6981   11.3359 N.ar    1  UNL1       -0.2119
      5 C          62.0108   87.8287   10.4713 C.ar    1  UNL1        0.1091
      6 C          62.2286   89.2476   10.9063 C.ar    1  UNL1        0.1040
      7 N          63.6487   85.8557   13.5002 N.pl3   1  UNL1       -0.2768
      8 C          64.2241   86.1386   14.8563 C.3     1  UNL1        0.0937
      9 C          64.6975   85.0080   15.7209 C.3     1  UNL1        0.0229
     10 C          64.5955   83.5944   15.2295 C.3     1  UNL1        0.0190
     11 C          64.0202   83.3115   13.8734 C.3     1  UNL1        0.0710
     12 N          63.9182   81.8980   13.3819 N.3     1  UNL1       -0.3208
     13 C          63.5468   84.4422   13.0088 C.3     1  UNL1        0.1090
     14 H          64.2833   81.2638   14.0925 H       1  UNL1        0.1189
     15 H          64.4609   81.7963   12.5242 H       1  UNL1        0.1189
     16 C          61.7551   90.3782   10.0417 C.2     1  UNL1        0.2470
     17 N          60.3162   90.4518    9.6246 N.am    1  UNL1       -0.3252
     18 O          62.7207   91.4352    9.5941 O.2     1  UNL1       -0.2702
     19 H          59.6824   89.7580    9.9184 H       1  UNL1        0.1453
     20 H          60.0055   91.1939    9.0571 H       1  UNL1        0.1453
     21 N          63.1374   90.9548   12.6411 N.pl3   1  UNL1       -0.2976
     22 H          62.3719   91.5065   12.9220 H       1  UNL1        0.1536
     23 C          66.6471   92.2660   13.9499 C.ar    1  UNL1        0.0594
     24 C          65.2631   91.6877   13.9428 C.ar    1  UNL1        0.0293
     25 C          64.5215   91.5331   12.6481 C.ar    1  UNL1        0.0517
     26 C          65.1638   91.9567   11.3606 C.ar    1  UNL1        0.0293
     27 C          66.5478   92.5350   11.3677 C.ar    1  UNL1        0.0594
     28 N          67.2895   92.6897   12.6623 N.ar    1  UNL1       -0.2539
     29 C          66.6304   92.5724   16.5297 C.3     1  UNL1        0.0063
     30 C          67.3887   92.4207   15.2445 C.3     1  UNL1        0.0403
     31 C          68.8887   92.4235   15.2539 C.3     1  UNL1        0.0063
     32 C          67.1903   92.9587   10.0801 C.3     1  UNL1        0.0403
     33 C          68.2276   92.0868    9.4370 C.3     1  UNL1        0.0063
     34 C          66.7953   94.2543    9.4356 C.3     1  UNL1        0.0063
@<TRIPOS>BOND
     1    29    30    1
     2    30    31    1
     3    30    23    1
     4    23    24   ar
     5    24    25   ar
     6    25    21    1
     7    21     1    1
     8     1     2   ar
     9     2     3   ar
    10     3     7    1
    11     7     8    1
    12     8     9    1
    13     9    10    1
    14    10    11    1
    15    11    12    1
    16    11    13    1
    17     3     4   ar
    18     4     5   ar
    19     5     6   ar
    20     6    16    1
    21    16    17   am
    22    16    18    2
    23    25    26   ar
    24    26    27   ar
    25    27    32    1
    26    32    33    1
    27    32    34    1
    28    27    28   ar
    29    28    23   ar
    30     6     1   ar
    31    13     7    1
    32    21    22    1
    33    12    14    1
    34    12    15    1
    35    17    19    1
    36    17    20    1
@<TRIPOS>MOLECULE
*****
 34 36 0 0 0
SMALL
GASTEIGER

@<TRIPOS>ATOM
      1 C          61.7624   88.2674   10.7272 C.ar    1  UNL1        0.1409
      2 N          62.4700   87.4844   11.7933 N.ar    1  UNL1       -0.1984
      3 C          62.4198   85.9853   11.7808 C.ar    1  UNL1        0.2214
      4 N          61.6622   85.2691   10.7023 N.ar    1  UNL1       -0.2119
      5 C          60.9547   86.0521    9.6363 C.ar    1  UNL1        0.1091
      6 C          61.0049   87.5512    9.6487 C.ar    1  UNL1        0.1040
      7 N          63.1273   85.2023   12.8468 N.pl3   1  UNL1       -0.2768
      8 C          63.9683   85.9127   13.8657 C.3     1  UNL1        0.0937
      9 C          64.6758   85.1297   14.9318 C.3     1  UNL1        0.0229
     10 C          64.5423   83.6364   14.9789 C.3     1  UNL1        0.0190
     11 C          63.7013   82.9261   13.9600 C.3     1  UNL1        0.0710
     12 N          63.5677   81.4328   14.0071 N.3     1  UNL1       -0.3208
     13 C          62.9938   83.7090   12.8940 C.3     1  UNL1        0.1090
     14 H          64.1106   81.0674   14.7896 H       1  UNL1        0.1189
     15 H          63.9155   81.0326   13.1357 H       1  UNL1        0.1189
     16 C          60.2973   88.3342    8.5827 C.2     1  UNL1        0.2470
     17 N          59.4251   87.6279    7.5875 N.am    1  UNL1       -0.3252
     18 O          60.4621   89.8234    8.5118 O.2     1  UNL1       -0.2702
     19 H          59.3170   86.6505    7.6340 H       1  UNL1        0.1453
     20 H          58.9608   88.1418    6.8878 H       1  UNL1        0.1453
     21 N          61.8125   89.7665   10.7397 N.pl3   1  UNL1       -0.2976
     22 H          61.1545   90.2853   10.2229 H       1  UNL1        0.1536
     23 C          64.9169   92.0652   11.6501 C.ar    1  UNL1        0.0594
     24 C          63.8642   91.3566   10.8504 C.ar    1  UNL1        0.0293
     25 C          62.8653   90.4751   11.5396 C.ar    1  UNL1        0.0517
     26 C          62.9190   90.3021   13.0285 C.ar    1  UNL1        0.0293
     27 C          63.9717   91.0107   13.8283 C.ar    1  UNL1        0.0594
     28 N          64.9706   91.8922   13.1391 N.ar    1  UNL1       -0.2539
     29 C          65.6258   94.4067   10.7757 C.3     1  UNL1        0.0063
     30 C          65.9158   92.9468   10.9609 C.3     1  UNL1        0.0403
     31 C          67.2048   92.3684   10.4570 C.3     1  UNL1        0.0063
     32 C          64.0255   90.8377   15.3174 C.3     1  UNL1        0.0403
     33 C          64.6747   91.8863   16.1713 C.3     1  UNL1        0.0063
     34 C          63.4301   89.6162   15.9526 C.3     1  UNL1        0.0063
@<TRIPOS>BOND
     1    29    30    1
     2    30    31    1
     3    30    23    1
     4    23    24   ar
     5    24    25   ar
     6    25    21    1
     7    21     1    1
     8     1     2   ar
     9     2     3   ar
    10     3     7    1
    11     7     8    1
    12     8     9    1
    13     9    10    1
    14    10    11    1
    15    11    12    1
    16    11    13    1
    17     3     4   ar
    18     4     5   ar
    19     5     6   ar
    20     6    16    1
    21    16    17   am
    22    16    18    2
    23    25    26   ar
    24    26    27   ar
    25    27    32    1
    26    32    33    1
    27    32    34    1
    28    27    28   ar
    29    28    23   ar
    30     6     1   ar
    31    13     7    1
    32    21    22    1
    33    12    14    1
    34    12    15    1
    35    17    19    1
    36    17    20    1
@<TRIPOS>MOLECULE
*****
 34 36 0 0 0
SMALL
GASTEIGER

@<TRIPOS>ATOM
      1 C          63.0829   89.5675   12.1969 C.ar    1  UNL1        0.1409
      2 N          62.5593   88.9206   10.9489 N.ar    1  UNL1       -0.1984
      3 C          62.4114   87.4294   10.8824 C.ar    1  UNL1        0.2214
      4 N          62.7871   86.5850   12.0639 N.ar    1  UNL1       -0.2119
      5 C          63.3107   87.2319   13.3119 C.ar    1  UNL1        0.1091
      6 C          63.4585   88.7231   13.3784 C.ar    1  UNL1        0.1040
      7 N          61.8879   86.7826    9.6344 N.pl3   1  UNL1       -0.2768
      8 C          62.7850   85.9074    8.8103 C.3     1  UNL1        0.0937
      9 C          62.2614   85.2604    7.5623 C.3     1  UNL1        0.0229
     10 C          60.8408   85.4888    7.1384 C.3     1  UNL1        0.0190
     11 C          59.9437   86.3640    7.9626 C.3     1  UNL1        0.0710
     12 N          58.5230   86.5924    7.5388 N.3     1  UNL1       -0.3208
     13 C          60.4672   87.0109    9.2106 C.3     1  UNL1        0.1090
     14 H          58.3393   86.0807    6.6757 H       1  UNL1        0.1189
     15 H          58.3709   87.5888    7.3823 H       1  UNL1        0.1189
     16 C          63.9821   89.3700   14.6264 C.2     1  UNL1        0.2470
     17 N          63.0290   89.9750   15.6141 N.am    1  UNL1       -0.3252
     18 O          65.4588   89.4118   14.8867 O.2     1  UNL1       -0.2702
     19 H          62.0599   89.9475   15.4433 H       1  UNL1        0.1453
     20 H          63.3727   90.3995   16.4332 H       1  UNL1        0.1453
     21 N          63.2307   91.0587   12.2634 N.pl3   1  UNL1       -0.2976
     22 H          62.4308   91.6323   12.2817 H       1  UNL1        0.1536
     23 C          66.6299   92.7208   11.0664 C.ar    1  UNL1        0.0594
     24 C          65.2634   92.1036   11.0278 C.ar    1  UNL1        0.0293
     25 C          64.5974   91.6759   12.3020 C.ar    1  UNL1        0.0517
     26 C          65.2980   91.8652   13.6147 C.ar    1  UNL1        0.0293
     27 C          66.6646   92.4824   13.6532 C.ar    1  UNL1        0.0594
     28 N          67.3305   92.9102   12.3791 N.ar    1  UNL1       -0.2539
     29 C          66.9261   94.4549    9.1546 C.3     1  UNL1        0.0063
     30 C          67.2959   93.1486    9.7922 C.3     1  UNL1        0.0403
     31 C          68.3317   92.2700    9.1557 C.3     1  UNL1        0.0063
     32 C          67.3653   92.6718   14.9660 C.3     1  UNL1        0.0403
     33 C          66.5713   92.7415   16.2367 C.3     1  UNL1        0.0063
     34 C          68.8599   92.7914   15.0079 C.3     1  UNL1        0.0063
@<TRIPOS>BOND
     1    29    30    1
     2    30    31    1
     3    30    23    1
     4    23    24   ar
     5    24    25   ar
     6    25    21    1
     7    21     1    1
     8     1     2   ar
     9     2     3   ar
    10     3     7    1
    11     7     8    1
    12     8     9    1
    13     9    10    1
    14    10    11    1
    15    11    12    1
    16    11    13    1
    17     3     4   ar
    18     4     5   ar
    19     5     6   ar
    20     6    16    1
    21    16    17   am
    22    16    18    2
    23    25    26   ar
    24    26    27   ar
    25    27    32    1
    26    32    33    1
    27    32    34    1
    28    27    28   ar
    29    28    23   ar
    30     6     1   ar
    31    13     7    1
    32    21    22    1
    33    12    14    1
    34    12    15    1
    35    17    19    1
    36    17    20    1
@<TRIPOS>MOLECULE
*****
 34 36 0 0 0
SMALL
GASTEIGER

@<TRIPOS>ATOM
      1 C          61.9659   88.4751   10.4646 C.ar    1  UNL1        0.1409
      2 N          62.6520   87.2557   11.0055 N.ar    1  UNL1       -0.1984
      3 C          62.1397   85.8899   10.6560 C.ar    1  UNL1        0.2214
      4 N          60.9414   85.7435    9.7656 N.ar    1  UNL1       -0.2119
      5 C          60.2554   86.9628    9.2248 C.ar    1  UNL1        0.1091
      6 C          60.7676   88.3286    9.5743 C.ar    1  UNL1        0.1040
      7 N          62.8257   84.6705   11.1968 N.pl3   1  UNL1       -0.2768
      8 C          63.6309   83.7955   10.2826 C.3     1  UNL1        0.0937
      9 C          64.3170   82.5761   10.8234 C.3     1  UNL1        0.0229
     10 C          64.1977   82.2317   12.2785 C.3     1  UNL1        0.0190
     11 C          63.3925   83.1069   13.1927 C.3     1  UNL1        0.0710
     12 N          63.2733   82.7626   14.6478 N.3     1  UNL1       -0.3208
     13 C          62.7065   84.3262   12.6519 C.3     1  UNL1        0.1090
     14 H          63.7982   81.9093   14.8394 H       1  UNL1        0.1189
     15 H          62.2915   82.6179   14.8837 H       1  UNL1        0.1189
     16 C          60.0816   89.5480    9.0334 C.2     1  UNL1        0.2470
     17 N          59.8849   89.7040    7.5546 N.am    1  UNL1       -0.3252
     18 O          59.5922   90.6114    9.9714 O.2     1  UNL1       -0.2702
     19 H          60.2061   89.0061    6.9390 H       1  UNL1        0.1453
     20 H          59.4346   90.5043    7.1996 H       1  UNL1        0.1453
     21 N          62.4781   89.8409   10.8141 N.pl3   1  UNL1       -0.2976
     22 H          62.2799   90.6061   10.2271 H       1  UNL1        0.1536
     23 C          65.0715   91.3861   13.3903 C.ar    1  UNL1        0.0594
     24 C          64.2572   91.1861   12.1466 C.ar    1  UNL1        0.0293
     25 C          63.2925   90.0409   12.0579 C.ar    1  UNL1        0.0517
     26 C          63.1420   89.0958   13.2129 C.ar    1  UNL1        0.0293
     27 C          63.9562   89.2959   14.4566 C.ar    1  UNL1        0.0594
     28 N          64.9210   90.4410   14.5453 N.ar    1  UNL1       -0.2539
     29 C          66.0184   93.6095   12.4364 C.3     1  UNL1        0.0063
     30 C          66.0363   92.5313   13.4790 C.3     1  UNL1        0.0403
     31 C          67.0189   92.5982   14.6103 C.3     1  UNL1        0.0063
     32 C          63.8058   88.3507   15.6117 C.3     1  UNL1        0.0403
     33 C          63.1877   88.8252   16.8934 C.3     1  UNL1        0.0063
     34 C          64.2735   86.9311   15.4850 C.3     1  UNL1        0.0063
@<TRIPOS>BOND
     1    29    30    1
     2    30    31    1
     3    30    23    1
     4    23    24   ar
     5    24    25   ar
     6    25    21    1
     7    21     1    1
     8     1     2   ar
     9     2     3   ar
    10     3     7    1
    11     7     8    1
    12     8     9    1
    13     9    10    1
    14    10    11    1
    15    11    12    1
    16    11    13    1
    17     3     4   ar
    18     4     5   ar
    19     5     6   ar
    20     6    16    1
    21    16    17   am
    22    16    18    2
    23    25    26   ar
    24    26    27   ar
    25    27    32    1
    26    32    33    1
    27    32    34    1
    28    27    28   ar
    29    28    23   ar
    30     6     1   ar
    31    13     7    1
    32    21    22    1
    33    12    14    1
    34    12    15    1
    35    17    19    1
    36    17    20    1
