@<TRIPOS>MOLECULE
*****
 34 38 0 0 0
SMALL
GASTEIGER

@<TRIPOS>ATOM
      1 N          64.0669   85.8979   14.3789 N.3     1  UNL1       -0.2726
      2 C          64.6326   84.5425   14.6835 C.3     1  UNL1        0.0721
      3 C          64.2692   83.6242   13.5546 C.3     1  UNL1        0.0190
      4 C          63.4788   84.4120   12.5522 C.3     1  UNL1        0.0202
      5 C          63.2715   83.2795   11.5908 C.3     1  UNL1        0.0062
      6 C          62.7058   84.6349   11.2862 C.3     1  UNL1        0.0259
      7 C          63.3538   85.8173   13.0617 C.3     1  UNL1        0.0724
      8 C          61.9329   85.5461   10.3794 C.ar    1  UNL1        0.0050
      9 C          60.9807   86.5499   10.9590 C.ar    1  UNL1       -0.0021
     10 C          60.2078   87.4611   10.0522 C.ar    1  UNL1        0.0037
     11 C          60.3871   87.3686    8.5659 C.ar    1  UNL1        0.0736
     12 C          61.3393   86.3648    7.9863 C.ar    1  UNL1        0.0332
     13 C          62.1122   85.4536    8.8931 C.ar    1  UNL1        0.1361
     14 F          63.0643   84.4499    8.3135 F       1  UNL1       -0.2045
     15 C          59.6142   88.2798    7.6591 C.3     1  UNL1        0.4186
     16 F          58.8412   89.1910    6.7523 F       1  UNL1       -0.1659
     17 F          60.3265   89.4641    8.2421 F       1  UNL1       -0.1659
     18 F          58.9019   87.0954    7.0761 F       1  UNL1       -0.1659
     19 C          64.1922   87.1196   15.2403 C.3     1  UNL1        0.0730
     20 C          64.5456   88.4399   14.6224 C.3     1  UNL1        0.0294
     21 C          63.5721   89.5796   14.6799 C.3     1  UNL1        0.0666
     22 S          63.3652   90.4508   13.4765 S.3     1  UNL1       -0.0756
     23 C          65.7064   93.1249   11.9165 C.ar    1  UNL1        0.2029
     24 N          66.0773   93.2253   13.3665 N.ar    1  UNL1       -0.1250
     25 N          65.2454   92.2358   14.1273 N.ar    1  UNL1       -0.1220
     26 C          64.3604   91.5238   13.1476 C.ar    1  UNL1        0.1933
     27 N          64.6452   92.0733   11.7812 N.ar    1  UNL1       -0.2860
     28 C          63.9849   91.6462   10.5039 C.3     1  UNL1        0.1341
     29 C          68.0404   92.1425    9.8581 C.3     1  UNL1        0.0556
     30 C          67.3663   93.4824    9.8520 C.ar    1  UNL1        0.1001
     31 N          67.6466   94.6061    8.8988 N.ar    1  UNL1       -0.2085
     32 C          66.7471   95.7522    9.2557 C.ar    1  UNL1        0.2849
     33 O          65.9108   95.3368   10.4296 O.2     1  UNL1       -0.4283
     34 C          66.2935   93.9340   10.7981 C.ar    1  UNL1        0.1964
@<TRIPOS>BOND
     1    29    30    1
     2    30    31   ar
     3    31    32   ar
     4    32    33   ar
     5    33    34   ar
     6    34    23    1
     7    23    24   ar
     8    24    25   ar
     9    25    26   ar
    10    26    22    1
    11    22    21    1
    12    21    20    1
    13    20    19    1
    14    19     1    1
    15     1     2    1
    16     2     3    1
    17     4     3    1
    18     4     5    1
    19     5     6    1
    20     6     8    1
    21     8     9   ar
    22     9    10   ar
    23    10    11   ar
    24    11    15    1
    25    15    16    1
    26    15    17    1
    27    15    18    1
    28    11    12   ar
    29    12    13   ar
    30    13    14    1
    31     4     7    1
    32    26    27   ar
    33    27    28    1
    34    34    30   ar
    35    27    23   ar
    36     7     1    1
    37     6     4    1
    38    13     8   ar
@<TRIPOS>MOLECULE
*****
 34 38 0 0 0
SMALL
GASTEIGER

@<TRIPOS>ATOM
      1 N          64.2847   85.8431   15.0787 N.3     1  UNL1       -0.2726
      2 C          63.5205   85.6017   16.3467 C.3     1  UNL1        0.0721
      3 C          63.1054   86.9334   16.8983 C.3     1  UNL1        0.0190
      4 C          63.6130   87.9978   15.9713 C.3     1  UNL1        0.0202
      5 C          63.0680   89.1576   16.7509 C.3     1  UNL1        0.0062
      6 C          63.8322   89.3991   15.4829 C.3     1  UNL1        0.0259
      7 C          64.3419   87.3240   14.8467 C.3     1  UNL1        0.0724
      8 C          64.3999   90.3474   14.4689 C.ar    1  UNL1        0.0050
      9 C          65.6798   91.0750   14.7565 C.ar    1  UNL1       -0.0021
     10 C          66.2475   92.0234   13.7425 C.ar    1  UNL1        0.0037
     11 C          65.5355   92.2441   12.4409 C.ar    1  UNL1        0.0736
     12 C          64.2556   91.5165   12.1533 C.ar    1  UNL1        0.0332
     13 C          63.6879   90.5682   13.1673 C.ar    1  UNL1        0.1361
     14 F          62.4081   89.8406   12.8798 F       1  UNL1       -0.2045
     15 C          66.1032   93.1925   11.4269 C.3     1  UNL1        0.4186
     16 F          66.6710   94.1409   10.4128 F       1  UNL1       -0.1659
     17 F          65.9318   92.1532   10.3589 F       1  UNL1       -0.1659
     18 F          66.2746   94.2317   12.4948 F       1  UNL1       -0.1659
     19 C          64.8861   84.7888   14.1974 C.3     1  UNL1        0.0730
     20 C          64.2245   83.4484   14.0730 C.3     1  UNL1        0.0294
     21 C          63.8294   82.9294   12.7222 C.3     1  UNL1        0.0666
     22 S          63.8853   83.8326   11.5260 S.3     1  UNL1       -0.0756
     23 C          61.3125   86.4568   10.2769 C.ar    1  UNL1        0.2029
     24 N          61.0939   86.5194   11.7596 N.ar    1  UNL1       -0.1250
     25 N          62.0311   85.5440   12.4079 N.ar    1  UNL1       -0.1220
     26 C          62.8289   84.8786   11.3259 C.ar    1  UNL1        0.1933
     27 N          62.3849   85.4426   10.0089 N.ar    1  UNL1       -0.2860
     28 C          62.9193   85.0599    8.6606 C.3     1  UNL1        0.1341
     29 C          61.4895   89.6939    9.9035 C.3     1  UNL1        0.0556
     30 C          60.6677   88.7541    9.0720 C.ar    1  UNL1        0.1001
     31 N          59.7830   89.1371    7.9229 N.ar    1  UNL1       -0.2085
     32 C          59.1548   87.8860    7.3843 C.ar    1  UNL1        0.2849
     33 O          59.6513   86.7296    8.2006 O.2     1  UNL1       -0.4283
     34 C          60.5864   87.2662    9.2436 C.ar    1  UNL1        0.1964
@<TRIPOS>BOND
     1    29    30    1
     2    30    31   ar
     3    31    32   ar
     4    32    33   ar
     5    33    34   ar
     6    34    23    1
     7    23    24   ar
     8    24    25   ar
     9    25    26   ar
    10    26    22    1
    11    22    21    1
    12    21    20    1
    13    20    19    1
    14    19     1    1
    15     1     2    1
    16     2     3    1
    17     4     3    1
    18     4     5    1
    19     5     6    1
    20     6     8    1
    21     8     9   ar
    22     9    10   ar
    23    10    11   ar
    24    11    15    1
    25    15    16    1
    26    15    17    1
    27    15    18    1
    28    11    12   ar
    29    12    13   ar
    30    13    14    1
    31     4     7    1
    32    26    27   ar
    33    27    28    1
    34    34    30   ar
    35    27    23   ar
    36     7     1    1
    37     6     4    1
    38    13     8   ar
@<TRIPOS>MOLECULE
*****
 34 38 0 0 0
SMALL
GASTEIGER

@<TRIPOS>ATOM
      1 N          64.0715   85.1130   14.6183 N.3     1  UNL1       -0.2726
      2 C          64.5194   83.6883   14.7584 C.3     1  UNL1        0.0721
      3 C          64.1151   82.9511   13.5161 C.3     1  UNL1        0.0190
      4 C          63.4174   83.9202   12.6083 C.3     1  UNL1        0.0202
      5 C          63.1472   82.9375   11.5078 C.3     1  UNL1        0.0062
      6 C          62.6993   84.3622   11.3677 C.3     1  UNL1        0.0259
      7 C          63.3904   85.2564   13.2895 C.3     1  UNL1        0.0724
      8 C          62.0262   85.4399   10.5707 C.ar    1  UNL1        0.0050
      9 C          61.1144   86.4175   11.2511 C.ar    1  UNL1       -0.0021
     10 C          60.4413   87.4953   10.4540 C.ar    1  UNL1        0.0037
     11 C          60.6799   87.5954    8.9765 C.ar    1  UNL1        0.0736
     12 C          61.5917   86.6177    8.2961 C.ar    1  UNL1        0.0332
     13 C          62.2648   85.5400    9.0932 C.ar    1  UNL1        0.1361
     14 F          63.1765   84.5624    8.4128 F       1  UNL1       -0.2045
     15 C          60.0068   88.6731    8.1794 C.3     1  UNL1        0.4186
     16 F          59.3336   89.7508    7.3822 F       1  UNL1       -0.1659
     17 F          60.4454   89.6930    9.1880 F       1  UNL1       -0.1659
     18 F          59.5682   87.6532    7.1707 F       1  UNL1       -0.1659
     19 C          64.2699   86.2030   15.6295 C.3     1  UNL1        0.0730
     20 C          63.3380   86.3197   16.7991 C.3     1  UNL1        0.0294
     21 C          62.9424   87.6732   17.3108 C.3     1  UNL1        0.0666
     22 S          62.4023   88.7043   16.3648 S.3     1  UNL1       -0.0756
     23 C          64.6976   91.2795   14.5857 C.ar    1  UNL1        0.2029
     24 N          64.5077   91.9347   15.9216 N.ar    1  UNL1       -0.1250
     25 N          63.6248   91.0498   16.7507 N.ar    1  UNL1       -0.1220
     26 C          63.2690   89.8476   15.9271 C.ar    1  UNL1        0.1933
     27 N          63.9320   89.9895   14.5891 N.ar    1  UNL1       -0.2860
     28 C          63.8447   89.0130   13.4539 C.3     1  UNL1        0.1341
     29 C          67.9055   91.8772   14.6319 C.3     1  UNL1        0.0556
     30 C          66.9849   92.0941   13.4676 C.ar    1  UNL1        0.1001
     31 N          67.3771   92.6238   12.1202 N.ar    1  UNL1       -0.2085
     32 C          66.1450   92.6764   11.2662 C.ar    1  UNL1        0.2849
     33 O          64.9913   92.1792   12.0858 O.2     1  UNL1       -0.4283
     34 C          65.5104   91.8194   13.4464 C.ar    1  UNL1        0.1964
@<TRIPOS>BOND
     1    29    30    1
     2    30    31   ar
     3    31    32   ar
     4    32    33   ar
     5    33    34   ar
     6    34    23    1
     7    23    24   ar
     8    24    25   ar
     9    25    26   ar
    10    26    22    1
    11    22    21    1
    12    21    20    1
    13    20    19    1
    14    19     1    1
    15     1     2    1
    16     2     3    1
    17     4     3    1
    18     4     5    1
    19     5     6    1
    20     6     8    1
    21     8     9   ar
    22     9    10   ar
    23    10    11   ar
    24    11    15    1
    25    15    16    1
    26    15    17    1
    27    15    18    1
    28    11    12   ar
    29    12    13   ar
    30    13    14    1
    31     4     7    1
    32    26    27   ar
    33    27    28    1
    34    34    30   ar
    35    27    23   ar
    36     7     1    1
    37     6     4    1
    38    13     8   ar
@<TRIPOS>MOLECULE
*****
 34 38 0 0 0
SMALL
GASTEIGER

@<TRIPOS>ATOM
      1 N          64.3949   85.9425   15.1536 N.3     1  UNL1       -0.2726
      2 C          63.5727   85.7340   16.3907 C.3     1  UNL1        0.0721
      3 C          63.1008   87.0765   16.8652 C.3     1  UNL1        0.0190
      4 C          63.6314   88.1146   15.9214 C.3     1  UNL1        0.0202
      5 C          63.0220   89.2914   16.6240 C.3     1  UNL1        0.0062
      6 C          63.8443   89.4999   15.3869 C.3     1  UNL1        0.0259
      7 C          64.4312   87.4137   14.8635 C.3     1  UNL1        0.0724
      8 C          64.4419   90.4200   14.3640 C.ar    1  UNL1        0.0050
      9 C          65.7793   91.0517   14.6138 C.ar    1  UNL1       -0.0021
     10 C          66.3768   91.9718   13.5909 C.ar    1  UNL1        0.0037
     11 C          65.6370   92.2602   12.3183 C.ar    1  UNL1        0.0736
     12 C          64.2996   91.6285   12.0686 C.ar    1  UNL1        0.0332
     13 C          63.7021   90.7084   13.0914 C.ar    1  UNL1        0.1361
     14 F          62.3647   90.0767   12.8417 F       1  UNL1       -0.2045
     15 C          66.2346   93.1803   11.2954 C.3     1  UNL1        0.4186
     16 F          66.8322   94.1005   10.2725 F       1  UNL1       -0.1659
     17 F          66.5950   91.9994   10.4437 F       1  UNL1       -0.1659
     18 F          65.8743   94.3612   12.1472 F       1  UNL1       -0.1659
     19 C          65.0634   84.8683   14.3479 C.3     1  UNL1        0.0730
     20 C          64.2581   83.7223   13.8112 C.3     1  UNL1        0.0294
     21 C          64.6285   83.0940   12.5004 C.3     1  UNL1        0.0666
     22 S          63.5808   82.8806   11.4484 S.3     1  UNL1       -0.0756
     23 C          62.3635   86.0637    9.5905 C.ar    1  UNL1        0.2029
     24 N          63.0475   85.3233    8.4796 N.ar    1  UNL1       -0.1250
     25 N          63.5867   84.0408    9.0403 N.ar    1  UNL1       -0.1220
     26 C          63.2360   83.9886   10.4978 C.ar    1  UNL1        0.1933
     27 N          62.4801   85.2388   10.8379 N.ar    1  UNL1       -0.2860
     28 C          61.9362   85.6005   12.1882 C.3     1  UNL1        0.1341
     29 C          59.5540   86.6526    8.0383 C.3     1  UNL1        0.0556
     30 C          60.3913   87.6659    8.7609 C.ar    1  UNL1        0.1001
     31 N          60.0841   89.1278    8.8970 N.ar    1  UNL1       -0.2085
     32 C          61.1857   89.7607    9.6946 C.ar    1  UNL1        0.2849
     33 O          62.1737   88.6899   10.0514 O.2     1  UNL1       -0.4283
     34 C          61.6826   87.3953    9.4744 C.ar    1  UNL1        0.1964
@<TRIPOS>BOND
     1    29    30    1
     2    30    31   ar
     3    31    32   ar
     4    32    33   ar
     5    33    34   ar
     6    34    23    1
     7    23    24   ar
     8    24    25   ar
     9    25    26   ar
    10    26    22    1
    11    22    21    1
    12    21    20    1
    13    20    19    1
    14    19     1    1
    15     1     2    1
    16     2     3    1
    17     4     3    1
    18     4     5    1
    19     5     6    1
    20     6     8    1
    21     8     9   ar
    22     9    10   ar
    23    10    11   ar
    24    11    15    1
    25    15    16    1
    26    15    17    1
    27    15    18    1
    28    11    12   ar
    29    12    13   ar
    30    13    14    1
    31     4     7    1
    32    26    27   ar
    33    27    28    1
    34    34    30   ar
    35    27    23   ar
    36     7     1    1
    37     6     4    1
    38    13     8   ar
@<TRIPOS>MOLECULE
*****
 34 38 0 0 0
SMALL
GASTEIGER

@<TRIPOS>ATOM
      1 N          62.1442   85.8436    8.6553 N.3     1  UNL1       -0.2726
      2 C          60.8548   85.9664    7.8987 C.3     1  UNL1        0.0721
      3 C          60.2269   87.2791    8.2630 C.3     1  UNL1        0.0190
      4 C          61.1282   87.9675    9.2446 C.3     1  UNL1        0.0202
      5 C          60.2746   89.1897    9.4109 C.3     1  UNL1        0.0062
      6 C          61.5640   89.0669   10.1675 C.3     1  UNL1        0.0259
      7 C          62.3132   87.0804    9.4871 C.3     1  UNL1        0.0724
      8 C          62.5600   89.6307   11.1370 C.ar    1  UNL1        0.0050
      9 C          62.8765   88.8904   12.4027 C.ar    1  UNL1       -0.0021
     10 C          63.8725   89.4542   13.3723 C.ar    1  UNL1        0.0037
     11 C          64.5520   90.7583   13.0762 C.ar    1  UNL1        0.0736
     12 C          64.2354   91.4986   11.8106 C.ar    1  UNL1        0.0332
     13 C          63.2394   90.9348   10.8410 C.ar    1  UNL1        0.1361
     14 F          62.9229   91.6750    9.5754 F       1  UNL1       -0.2045
     15 C          65.5480   91.3221   14.0458 C.3     1  UNL1        0.4186
     16 F          66.5440   91.8859   15.0154 F       1  UNL1       -0.1659
     17 F          64.7306   90.7990   15.1896 F       1  UNL1       -0.1659
     18 F          66.3653   91.8451   12.9020 F       1  UNL1       -0.1659
     19 C          63.0973   84.6871    8.5913 C.3     1  UNL1        0.0730
     20 C          63.8438   84.2615    9.8208 C.3     1  UNL1        0.0294
     21 C          63.9622   82.8051   10.1598 C.3     1  UNL1        0.0666
     22 S          63.0553   82.1985   11.1891 S.3     1  UNL1       -0.0756
     23 C          63.1840   83.8332   14.7072 C.ar    1  UNL1        0.2029
     24 N          63.6920   82.4545   15.0093 N.ar    1  UNL1       -0.1250
     25 N          63.7056   81.6744   13.7282 N.ar    1  UNL1       -0.1220
     26 C          63.2060   82.5708   12.6343 C.ar    1  UNL1        0.1933
     27 N          62.8836   83.9050   13.2392 N.ar    1  UNL1       -0.2860
     28 C          62.3538   85.1011   12.5052 C.3     1  UNL1        0.1341
     29 C          64.9971   86.5398   14.8978 C.3     1  UNL1        0.0556
     30 C          63.8407   86.1888   15.7864 C.ar    1  UNL1        0.1001
     31 N          63.3147   87.0203   16.9186 N.ar    1  UNL1       -0.2085
     32 C          62.1561   86.2901   17.5307 C.ar    1  UNL1        0.2849
     33 O          61.9662   85.0073   16.7768 O.2     1  UNL1       -0.4283
     34 C          63.0073   84.9447   15.6987 C.ar    1  UNL1        0.1964
@<TRIPOS>BOND
     1    29    30    1
     2    30    31   ar
     3    31    32   ar
     4    32    33   ar
     5    33    34   ar
     6    34    23    1
     7    23    24   ar
     8    24    25   ar
     9    25    26   ar
    10    26    22    1
    11    22    21    1
    12    21    20    1
    13    20    19    1
    14    19     1    1
    15     1     2    1
    16     2     3    1
    17     4     3    1
    18     4     5    1
    19     5     6    1
    20     6     8    1
    21     8     9   ar
    22     9    10   ar
    23    10    11   ar
    24    11    15    1
    25    15    16    1
    26    15    17    1
    27    15    18    1
    28    11    12   ar
    29    12    13   ar
    30    13    14    1
    31     4     7    1
    32    26    27   ar
    33    27    28    1
    34    34    30   ar
    35    27    23   ar
    36     7     1    1
    37     6     4    1
    38    13     8   ar
@<TRIPOS>MOLECULE
*****
 34 38 0 0 0
SMALL
GASTEIGER

@<TRIPOS>ATOM
      1 N          62.3060   85.6251    9.5005 N.3     1  UNL1       -0.2726
      2 C          62.9100   84.5245    8.6796 C.3     1  UNL1        0.0721
      3 C          63.6791   83.6264    9.6026 C.3     1  UNL1        0.0190
      4 C          63.5505   84.1721   10.9940 C.3     1  UNL1        0.0202
      5 C          64.3829   83.1137   11.6550 C.3     1  UNL1        0.0062
      6 C          63.7790   84.2143   12.4759 C.3     1  UNL1        0.0259
      7 C          62.7019   85.4073   10.9308 C.3     1  UNL1        0.0724
      8 C          63.5622   84.8742   13.8054 C.ar    1  UNL1        0.0050
      9 C          64.2607   86.1623   14.1261 C.ar    1  UNL1       -0.0021
     10 C          64.0439   86.8222   15.4556 C.ar    1  UNL1        0.0037
     11 C          63.1286   86.1939   16.4643 C.ar    1  UNL1        0.0736
     12 C          62.4301   84.9058   16.1436 C.ar    1  UNL1        0.0332
     13 C          62.6469   84.2459   14.8141 C.ar    1  UNL1        0.1361
     14 F          61.9484   82.9579   14.4933 F       1  UNL1       -0.2045
     15 C          62.9118   86.8538   17.7938 C.3     1  UNL1        0.4186
     16 F          62.6950   87.5136   19.1234 F       1  UNL1       -0.1659
     17 F          63.4135   88.1509   17.2319 F       1  UNL1       -0.1659
     18 F          62.4101   85.5567   18.3558 F       1  UNL1       -0.1659
     19 C          61.4555   86.7467    8.9821 C.3     1  UNL1        0.0730
     20 C          61.2434   87.9747    9.8169 C.3     1  UNL1        0.0294
     21 C          62.3710   88.9405   10.0305 C.3     1  UNL1        0.0666
     22 S          62.1535   90.1781   10.8497 S.3     1  UNL1       -0.0756
     23 C          65.0902   91.9034   12.7111 C.ar    1  UNL1        0.2029
     24 N          65.1852   92.5475   11.3597 N.ar    1  UNL1       -0.1250
     25 N          64.0967   91.9796   10.4980 N.ar    1  UNL1       -0.1220
     26 C          63.3289   90.9845   11.3167 C.ar    1  UNL1        0.1933
     27 N          63.9429   90.9374   12.6845 N.ar    1  UNL1       -0.2860
     28 C          63.4893   90.0756   13.8254 C.3     1  UNL1        0.1341
     29 C          68.3437   91.6511   12.7403 C.3     1  UNL1        0.0556
     30 C          67.4807   92.0613   13.8966 C.ar    1  UNL1        0.1001
     31 N          67.9617   92.4275   15.2694 N.ar    1  UNL1       -0.2085
     32 C          66.7635   92.7697   16.1044 C.ar    1  UNL1        0.2849
     33 O          65.5420   92.6151   15.2477 O.2     1  UNL1       -0.4283
     34 C          65.9853   92.1772   13.8832 C.ar    1  UNL1        0.1964
@<TRIPOS>BOND
     1    29    30    1
     2    30    31   ar
     3    31    32   ar
     4    32    33   ar
     5    33    34   ar
     6    34    23    1
     7    23    24   ar
     8    24    25   ar
     9    25    26   ar
    10    26    22    1
    11    22    21    1
    12    21    20    1
    13    20    19    1
    14    19     1    1
    15     1     2    1
    16     2     3    1
    17     4     3    1
    18     4     5    1
    19     5     6    1
    20     6     8    1
    21     8     9   ar
    22     9    10   ar
    23    10    11   ar
    24    11    15    1
    25    15    16    1
    26    15    17    1
    27    15    18    1
    28    11    12   ar
    29    12    13   ar
    30    13    14    1
    31     4     7    1
    32    26    27   ar
    33    27    28    1
    34    34    30   ar
    35    27    23   ar
    36     7     1    1
    37     6     4    1
    38    13     8   ar
@<TRIPOS>MOLECULE
*****
 34 38 0 0 0
SMALL
GASTEIGER

@<TRIPOS>ATOM
      1 N          62.7241   85.3057    9.5811 N.3     1  UNL1       -0.2726
      2 C          63.2712   84.1068    8.8647 C.3     1  UNL1        0.0721
      3 C          63.8947   83.2016    9.8853 C.3     1  UNL1        0.0190
      4 C          63.7331   83.8410   11.2326 C.3     1  UNL1        0.0202
      5 C          64.4205   82.7546   12.0053 C.3     1  UNL1        0.0062
      6 C          63.8734   83.9535   12.7218 C.3     1  UNL1        0.0259
      7 C          63.0096   85.1415   11.0445 C.3     1  UNL1        0.0724
      8 C          63.6386   84.7107   13.9951 C.ar    1  UNL1        0.0050
      9 C          64.3660   85.9981   14.2473 C.ar    1  UNL1       -0.0021
     10 C          64.1311   86.7553   15.5206 C.ar    1  UNL1        0.0037
     11 C          63.1689   86.2251   16.5419 C.ar    1  UNL1        0.0736
     12 C          62.4415   84.9377   16.2897 C.ar    1  UNL1        0.0332
     13 C          62.6763   84.1805   15.0164 C.ar    1  UNL1        0.1361
     14 F          61.9489   82.8932   14.7642 F       1  UNL1       -0.2045
     15 C          62.9341   86.9822   17.8152 C.3     1  UNL1        0.4186
     16 F          62.6992   87.7394   19.0887 F       1  UNL1       -0.1659
     17 F          63.4114   88.2414   17.1545 F       1  UNL1       -0.1659
     18 F          62.4567   85.7231   18.4759 F       1  UNL1       -0.1659
     19 C          62.0159   86.4653    8.9457 C.3     1  UNL1        0.0730
     20 C          61.9060   87.7697    9.6782 C.3     1  UNL1        0.0294
     21 C          60.7547   88.0129   10.6084 C.3     1  UNL1        0.0666
     22 S          60.6547   89.3102   11.3547 S.3     1  UNL1       -0.0756
     23 C          63.9171   91.1555   12.3633 C.ar    1  UNL1        0.2029
     24 N          63.5766   90.4488   13.6419 N.ar    1  UNL1       -0.1250
     25 N          62.3130   89.6716   13.4197 N.ar    1  UNL1       -0.1220
     26 C          61.8726   89.8979   12.0038 C.ar    1  UNL1        0.1933
     27 N          62.8639   90.8149   11.3509 N.ar    1  UNL1       -0.2860
     28 C          62.8114   91.3053    9.9343 C.3     1  UNL1        0.1341
     29 C          66.0146   92.1744   14.6463 C.3     1  UNL1        0.0556
     30 C          66.0667   92.5146   13.1863 C.ar    1  UNL1        0.1001
     31 N          67.0920   93.3828   12.5192 N.ar    1  UNL1       -0.2085
     32 C          66.7616   93.4510   11.0577 C.ar    1  UNL1        0.2849
     33 O          65.5321   92.6249   10.8214 O.2     1  UNL1       -0.4283
     34 C          65.1026   92.0462   12.1369 C.ar    1  UNL1        0.1964
@<TRIPOS>BOND
     1    29    30    1
     2    30    31   ar
     3    31    32   ar
     4    32    33   ar
     5    33    34   ar
     6    34    23    1
     7    23    24   ar
     8    24    25   ar
     9    25    26   ar
    10    26    22    1
    11    22    21    1
    12    21    20    1
    13    20    19    1
    14    19     1    1
    15     1     2    1
    16     2     3    1
    17     4     3    1
    18     4     5    1
    19     5     6    1
    20     6     8    1
    21     8     9   ar
    22     9    10   ar
    23    10    11   ar
    24    11    15    1
    25    15    16    1
    26    15    17    1
    27    15    18    1
    28    11    12   ar
    29    12    13   ar
    30    13    14    1
    31     4     7    1
    32    26    27   ar
    33    27    28    1
    34    34    30   ar
    35    27    23   ar
    36     7     1    1
    37     6     4    1
    38    13     8   ar
@<TRIPOS>MOLECULE
*****
 34 38 0 0 0
SMALL
GASTEIGER

@<TRIPOS>ATOM
      1 N          63.7317   90.4705   15.4475 N.3     1  UNL1       -0.2726
      2 C          64.8049   91.5184   15.4601 C.3     1  UNL1        0.0721
      3 C          65.0919   91.9050   14.0395 C.3     1  UNL1        0.0190
      4 C          64.1961   91.0960   13.1489 C.3     1  UNL1        0.0202
      5 C          64.6921   91.6771   11.8580 C.3     1  UNL1        0.0062
      6 C          63.6189   90.6292   11.8454 C.3     1  UNL1        0.0259
      7 C          63.3554   90.2095   14.0191 C.3     1  UNL1        0.0724
      8 C          62.6661   89.7547   11.0857 C.ar    1  UNL1        0.0050
      9 C          61.7578   90.3546   10.0536 C.ar    1  UNL1       -0.0021
     10 C          60.8049   89.4801    9.2938 C.ar    1  UNL1        0.0037
     11 C          60.7603   88.0057    9.5661 C.ar    1  UNL1        0.0736
     12 C          61.6686   87.4058   10.5982 C.ar    1  UNL1        0.0332
     13 C          62.6215   88.2803   11.3580 C.ar    1  UNL1        0.1361
     14 F          63.5297   87.6805   12.3900 F       1  UNL1       -0.2045
     15 C          59.8075   87.1313    8.8063 C.3     1  UNL1        0.4186
     16 F          58.8545   86.2567    8.0465 F       1  UNL1       -0.1659
     17 F          60.4583   85.9133    9.3920 F       1  UNL1       -0.1659
     18 F          59.1567   88.3492    8.2207 F       1  UNL1       -0.1659
     19 C          63.1388   89.8012   16.6519 C.3     1  UNL1        0.0730
     20 C          62.5644   88.4204   16.5358 C.3     1  UNL1        0.0294
     21 C          62.8553   87.3958   17.5921 C.3     1  UNL1        0.0666
     22 S          63.4863   86.0883   17.2151 S.3     1  UNL1       -0.0756
     23 C          62.8971   84.2118   13.8689 C.ar    1  UNL1        0.2029
     24 N          61.5375   84.1202   14.4960 N.ar    1  UNL1       -0.1250
     25 N          61.5927   84.8120   15.8258 N.ar    1  UNL1       -0.1220
     26 C          62.9865   85.3312   16.0206 C.ar    1  UNL1        0.1933
     27 N          63.7926   84.9603   14.8112 N.ar    1  UNL1       -0.2860
     28 C          65.2401   85.2814   14.5840 C.3     1  UNL1        0.1341
     29 C          63.4862   81.0722   13.2017 C.3     1  UNL1        0.0556
     30 C          63.5626   82.2100   12.2273 C.ar    1  UNL1        0.1001
     31 N          63.9231   82.1045   10.7751 N.ar    1  UNL1       -0.2085
     32 C          63.8752   83.4824   10.1843 C.ar    1  UNL1        0.2849
     33 O          63.4850   84.4395   11.2713 O.2     1  UNL1       -0.4283
     34 C          63.2918   83.6531   12.5339 C.ar    1  UNL1        0.1964
@<TRIPOS>BOND
     1    29    30    1
     2    30    31   ar
     3    31    32   ar
     4    32    33   ar
     5    33    34   ar
     6    34    23    1
     7    23    24   ar
     8    24    25   ar
     9    25    26   ar
    10    26    22    1
    11    22    21    1
    12    21    20    1
    13    20    19    1
    14    19     1    1
    15     1     2    1
    16     2     3    1
    17     4     3    1
    18     4     5    1
    19     5     6    1
    20     6     8    1
    21     8     9   ar
    22     9    10   ar
    23    10    11   ar
    24    11    15    1
    25    15    16    1
    26    15    17    1
    27    15    18    1
    28    11    12   ar
    29    12    13   ar
    30    13    14    1
    31     4     7    1
    32    26    27   ar
    33    27    28    1
    34    34    30   ar
    35    27    23   ar
    36     7     1    1
    37     6     4    1
    38    13     8   ar
@<TRIPOS>MOLECULE
*****
 34 38 0 0 0
SMALL
GASTEIGER

@<TRIPOS>ATOM
      1 N          63.6158   91.4885   10.6642 N.3     1  UNL1       -0.2726
      2 C          64.6041   92.5928   10.4327 C.3     1  UNL1        0.0721
      3 C          65.4603   92.7131   11.6585 C.3     1  UNL1        0.0190
      4 C          65.0011   91.6831   12.6475 C.3     1  UNL1        0.0202
      5 C          65.9968   92.0340   13.7131 C.3     1  UNL1        0.0062
      6 C          65.0084   90.9296   13.9446 C.3     1  UNL1        0.0259
      7 C          63.8611   90.9262   12.0330 C.3     1  UNL1        0.0724
      8 C          64.4420   89.8571   14.8271 C.ar    1  UNL1        0.0050
      9 C          64.5845   88.4148   14.4404 C.ar    1  UNL1       -0.0021
     10 C          64.0181   87.3422   15.3229 C.ar    1  UNL1        0.0037
     11 C          63.3092   87.7120   16.5920 C.ar    1  UNL1        0.0736
     12 C          63.1667   89.1543   16.9787 C.ar    1  UNL1        0.0332
     13 C          63.7332   90.2268   16.0962 C.ar    1  UNL1        0.1361
     14 F          63.5907   91.6690   16.4829 F       1  UNL1       -0.2045
     15 C          62.7428   86.6394   17.4745 C.3     1  UNL1        0.4186
     16 F          62.1764   85.5668   18.3570 F       1  UNL1       -0.1659
     17 F          62.8194   87.5669   18.6509 F       1  UNL1       -0.1659
     18 F          62.6662   85.7120   16.2981 F       1  UNL1       -0.1659
     19 C          62.5663   91.0274    9.6967 C.3     1  UNL1        0.0730
     20 C          61.4103   90.2032   10.1807 C.3     1  UNL1        0.0294
     21 C          60.4081   89.6684    9.2011 C.3     1  UNL1        0.0666
     22 S          60.3075   88.1910    8.9622 S.3     1  UNL1       -0.0756
     23 C          62.2093   85.3948   10.8675 C.ar    1  UNL1        0.2029
     24 N          61.5328   86.1089   12.0000 N.ar    1  UNL1       -0.1250
     25 N          60.7380   87.2432   11.4241 N.ar    1  UNL1       -0.1220
     26 C          60.9233   87.2303    9.9357 C.ar    1  UNL1        0.1933
     27 N          61.8326   86.0879    9.5916 N.ar    1  UNL1       -0.2860
     28 C          62.2856   85.7058    8.2137 C.3     1  UNL1        0.1341
     29 C          63.0597   83.9106   13.6466 C.3     1  UNL1        0.0556
     30 C          63.4960   83.5157   12.2669 C.ar    1  UNL1        0.1001
     31 N          64.3998   82.3692   11.9222 N.ar    1  UNL1       -0.2085
     32 C          64.5674   82.3429   10.4319 C.ar    1  UNL1        0.2849
     33 O          63.7673   83.4731    9.8554 O.2     1  UNL1       -0.4283
     34 C          63.1051   84.1979   10.9895 C.ar    1  UNL1        0.1964
@<TRIPOS>BOND
     1    29    30    1
     2    30    31   ar
     3    31    32   ar
     4    32    33   ar
     5    33    34   ar
     6    34    23    1
     7    23    24   ar
     8    24    25   ar
     9    25    26   ar
    10    26    22    1
    11    22    21    1
    12    21    20    1
    13    20    19    1
    14    19     1    1
    15     1     2    1
    16     2     3    1
    17     4     3    1
    18     4     5    1
    19     5     6    1
    20     6     8    1
    21     8     9   ar
    22     9    10   ar
    23    10    11   ar
    24    11    15    1
    25    15    16    1
    26    15    17    1
    27    15    18    1
    28    11    12   ar
    29    12    13   ar
    30    13    14    1
    31     4     7    1
    32    26    27   ar
    33    27    28    1
    34    34    30   ar
    35    27    23   ar
    36     7     1    1
    37     6     4    1
    38    13     8   ar
