@<TRIPOS>MOLECULE
*****
 43 46 0 0 0
SMALL
GASTEIGER

@<TRIPOS>ATOM
      1 N          61.7787   89.2718   10.6183 N.pl3   1  UNL1       -0.3043
      2 C          61.3113   89.5385   12.0185 C.3     1  UNL1        0.1123
      3 C          62.2057   90.2588   12.9834 C.3     1  UNL1        0.1149
      4 N          63.5677   90.7125   12.5482 N.am    1  UNL1       -0.2747
      5 C          64.4621   91.4328   13.5131 C.2     1  UNL1        0.2442
      6 O          63.9946   91.6995   14.9132 O.2     1  UNL1       -0.2731
      7 C          64.0351   90.4458   11.1481 C.3     1  UNL1        0.1149
      8 C          63.1406   89.7254   10.1831 C.3     1  UNL1        0.1123
      9 C          60.9077   87.0532    9.5842 C.ar    1  UNL1        0.0088
     10 C          60.0132   86.3330    8.6193 C.ar    1  UNL1       -0.0015
     11 C          59.0953   87.1109    7.7236 C.ar    1  UNL1       -0.0002
     12 C          59.0719   88.6091    7.7928 C.ar    1  UNL1        0.0012
     13 C          59.9663   89.3293    8.7577 C.ar    1  UNL1        0.0143
     14 C          60.8842   88.5514    9.6534 C.ar    1  UNL1        0.0454
     15 C          61.8256   86.2753   10.4799 C.3     1  UNL1        0.0953
     16 C          63.0148   86.2125   12.7889 C.2     1  UNL1        0.2388
     17 O          62.7018   84.7506   12.9104 O.2     1  UNL1       -0.2736
     18 N          62.5767   86.9749   11.5737 N.am    1  UNL1       -0.3010
     19 H          62.7822   87.9344   11.4939 H       1  UNL1        0.1497
     20 C          63.7660   86.9121   13.8828 C.3     1  UNL1        0.1549
     21 C          63.7308   85.6886   16.1744 C.3     1  UNL1        0.0862
     22 N          64.4691   86.1129   14.9396 N.3     1  UNL1       -0.2887
     23 H          64.8049   85.2611   14.4900 H       1  UNL1        0.1237
     24 C          61.9924   84.7979   10.2818 C.3     1  UNL1        0.0242
     25 C          63.1288   84.2757    9.4535 C.3     1  UNL1        0.0020
     26 C          63.4129   84.8742    8.1077 C.3     1  UNL1        0.0001
     27 C          63.9812   83.1552    9.9711 C.3     1  UNL1        0.0001
     28 C          65.8239   91.8864   13.0779 C.3     1  UNL1        0.1564
     29 N          66.8000   92.4078   14.0906 N.am    1  UNL1       -0.2727
     30 C          66.4531   93.1244   15.3619 C.3     1  UNL1        0.0943
     31 C          67.7330   93.4636   16.0668 C.3     1  UNL1        0.0311
     32 C          68.8708   92.9566   15.2312 C.3     1  UNL1        0.0870
     33 C          68.2943   92.3041   14.0098 C.2     1  UNL1        0.2260
     34 O          69.0748   91.6609   12.9022 O.2     1  UNL1       -0.2749
     35 C          66.2099   91.8186   11.6299 C.3     1  UNL1        0.0564
     36 C          66.5284   93.0775   10.8790 C.ar    1  UNL1       -0.0094
     37 C          65.8210   94.3549   11.2223 C.ar    1  UNL1       -0.0025
     38 C          66.1395   95.6137   10.4713 C.ar    1  UNL1        0.0111
     39 C          67.1654   95.5951    9.3771 C.ar    1  UNL1        0.0585
     40 CL         67.4839   96.8539    8.6261 Cl      1  UNL1       -0.0822
     41 C          67.8727   94.3177    9.0338 C.ar    1  UNL1        0.0225
     42 C          67.5542   93.0589    9.7848 C.ar    1  UNL1        0.0546
     43 CL         68.2615   91.7814    9.4415 Cl      1  UNL1       -0.0825
@<TRIPOS>BOND
     1    21    22    1
     2    22    20    1
     3    20    16    1
     4    16    17    2
     5    16    18   am
     6    18    15    1
     7    15    24    1
     8    24    25    1
     9    25    26    1
    10    25    27    1
    11    15     9    1
    12     9    10   ar
    13    10    11   ar
    14    11    12   ar
    15    12    13   ar
    16    13    14   ar
    17    14     1    1
    18     1     2    1
    19     2     3    1
    20     3     4    1
    21     4     5   am
    22     5     6    2
    23     5    28    1
    24    28    35    1
    25    35    36    1
    26    36    37   ar
    27    37    38   ar
    28    38    39   ar
    29    39    40    1
    30    39    41   ar
    31    41    42   ar
    32    42    43    1
    33    28    29    1
    34    29    30    1
    35    30    31    1
    36    31    32    1
    37    32    33    1
    38    33    34    2
    39     4     7    1
    40     7     8    1
    41    14     9   ar
    42     8     1    1
    43    42    36   ar
    44    33    29   am
    45    22    23    1
    46    18    19    1
@<TRIPOS>MOLECULE
*****
 43 46 0 0 0
SMALL
GASTEIGER

@<TRIPOS>ATOM
      1 N          61.9488   89.3466   10.9796 N.pl3   1  UNL1       -0.3043
      2 C          61.5262   89.3215   12.4186 C.3     1  UNL1        0.1123
      3 C          62.3083   90.0884   13.4434 C.3     1  UNL1        0.1149
      4 N          63.5130   90.8804   13.0292 N.am    1  UNL1       -0.2747
      5 C          64.2950   91.6472   14.0540 C.2     1  UNL1        0.2442
      6 O          63.8725   91.6221   15.4931 O.2     1  UNL1       -0.2731
      7 C          63.9356   90.9055   11.5902 C.3     1  UNL1        0.1149
      8 C          63.1535   90.1386   10.5654 C.3     1  UNL1        0.1123
      9 C          61.2702   87.0844    9.8969 C.ar    1  UNL1        0.0088
     10 C          60.4881   86.3176    8.8721 C.ar    1  UNL1       -0.0015
     11 C          59.6025   87.0461    7.9051 C.ar    1  UNL1       -0.0002
     12 C          59.4990   88.5414    7.9629 C.ar    1  UNL1        0.0012
     13 C          60.2811   89.3082    8.9877 C.ar    1  UNL1        0.0143
     14 C          61.1667   88.5797    9.9547 C.ar    1  UNL1        0.0454
     15 C          62.1557   86.3560   10.8639 C.3     1  UNL1        0.0953
     16 C          63.4326   86.3878   13.1263 C.2     1  UNL1        0.2388
     17 O          63.2639   84.9019   13.2425 O.2     1  UNL1       -0.2736
     18 N          62.8786   87.1148   11.9370 N.am    1  UNL1       -0.3010
     19 H          62.9894   88.0901   11.8607 H       1  UNL1        0.1497
     20 C          64.1555   87.1468   14.1994 C.3     1  UNL1        0.1549
     21 C          63.5733   85.9558   16.4338 C.3     1  UNL1        0.0862
     22 N          63.5957   87.1958   15.5902 N.3     1  UNL1       -0.2887
     23 H          64.1395   87.8905   16.1022 H       1  UNL1        0.1237
     24 C          62.3185   84.8686   10.7578 C.3     1  UNL1        0.0242
     25 C          63.3316   84.2903    9.8148 C.3     1  UNL1        0.0020
     26 C          63.4158   84.7930    8.4040 C.3     1  UNL1        0.0001
     27 C          64.2604   83.2094   10.2825 C.3     1  UNL1        0.0001
     28 C          65.4997   92.4391   13.6398 C.3     1  UNL1        0.1564
     29 N          66.7725   92.3351   14.4266 N.am    1  UNL1       -0.2727
     30 C          68.1147   91.9422   13.8843 C.3     1  UNL1        0.0943
     31 C          69.0984   91.9699   15.0164 C.3     1  UNL1        0.0311
     32 C          68.3641   92.3799   16.2585 C.3     1  UNL1        0.0870
     33 C          66.9266   92.6056   15.8940 C.2     1  UNL1        0.2260
     34 O          65.8350   93.0276   16.8321 O.2     1  UNL1       -0.2749
     35 C          65.4315   93.3352   12.4388 C.3     1  UNL1        0.0564
     36 C          66.3930   93.1424   11.3037 C.ar    1  UNL1       -0.0094
     37 C          67.1828   91.8715   11.1975 C.ar    1  UNL1       -0.0025
     38 C          68.1442   91.6787   10.0624 C.ar    1  UNL1        0.0111
     39 C          68.3158   92.7567    9.0335 C.ar    1  UNL1        0.0585
     40 CL         69.2772   92.5638    7.8984 Cl      1  UNL1       -0.0822
     41 C          67.5260   94.0274    9.1397 C.ar    1  UNL1        0.0225
     42 C          66.5646   94.2203   10.2748 C.ar    1  UNL1        0.0546
     43 CL         65.7748   95.4910   10.3810 Cl      1  UNL1       -0.0825
@<TRIPOS>BOND
     1    21    22    1
     2    22    20    1
     3    20    16    1
     4    16    17    2
     5    16    18   am
     6    18    15    1
     7    15    24    1
     8    24    25    1
     9    25    26    1
    10    25    27    1
    11    15     9    1
    12     9    10   ar
    13    10    11   ar
    14    11    12   ar
    15    12    13   ar
    16    13    14   ar
    17    14     1    1
    18     1     2    1
    19     2     3    1
    20     3     4    1
    21     4     5   am
    22     5     6    2
    23     5    28    1
    24    28    35    1
    25    35    36    1
    26    36    37   ar
    27    37    38   ar
    28    38    39   ar
    29    39    40    1
    30    39    41   ar
    31    41    42   ar
    32    42    43    1
    33    28    29    1
    34    29    30    1
    35    30    31    1
    36    31    32    1
    37    32    33    1
    38    33    34    2
    39     4     7    1
    40     7     8    1
    41    14     9   ar
    42     8     1    1
    43    42    36   ar
    44    33    29   am
    45    22    23    1
    46    18    19    1
@<TRIPOS>MOLECULE
*****
 43 46 0 0 0
SMALL
GASTEIGER

@<TRIPOS>ATOM
      1 N          63.4734   85.5653   13.8582 N.pl3   1  UNL1       -0.3043
      2 C          63.0245   85.8354   15.2637 C.3     1  UNL1        0.1123
      3 C          63.1746   87.2086   15.8482 C.3     1  UNL1        0.1149
      4 N          63.7737   88.3119   15.0271 N.am    1  UNL1       -0.2747
      5 C          63.9238   89.6851   15.6116 C.2     1  UNL1        0.2442
      6 O          63.4749   89.9552   17.0171 O.2     1  UNL1       -0.2731
      7 C          64.2225   88.0418   13.6215 C.3     1  UNL1        0.1149
      8 C          64.0724   86.6685   13.0371 C.3     1  UNL1        0.1123
      9 C          62.7050   84.0172   11.9183 C.ar    1  UNL1        0.0088
     10 C          62.5549   82.6439   11.3339 C.ar    1  UNL1       -0.0015
     11 C          63.0230   81.4454   12.1050 C.ar    1  UNL1       -0.0002
     12 C          63.6412   81.6202   13.4604 C.ar    1  UNL1        0.0012
     13 C          63.7913   82.9935   14.0448 C.ar    1  UNL1        0.0143
     14 C          63.3232   84.1920   13.2737 C.ar    1  UNL1        0.0454
     15 C          62.2369   85.2157   11.1473 C.3     1  UNL1        0.0953
     16 C          61.0523   87.5147   11.3943 C.2     1  UNL1        0.2388
     17 O          62.1533   88.1662   10.6112 O.2     1  UNL1       -0.2736
     18 N          61.0941   86.0394   11.6623 N.am    1  UNL1       -0.3010
     19 H          60.3715   85.6118   12.1763 H       1  UNL1        0.1497
     20 C          59.9094   88.3384   11.9095 C.3     1  UNL1        0.1549
     21 C          59.3488   90.8396   11.4853 C.3     1  UNL1        0.0862
     22 N          60.1157   89.7888   12.2320 N.3     1  UNL1       -0.2887
     23 H          59.8901   89.9058   13.2198 H       1  UNL1        0.1237
     24 C          62.9117   85.5905    9.8611 C.3     1  UNL1        0.0242
     25 C          62.1772   85.4517    8.5606 C.3     1  UNL1        0.0020
     26 C          62.8426   84.7903    7.3902 C.3     1  UNL1        0.0001
     27 C          60.7772   85.9743    8.4305 C.3     1  UNL1        0.0001
     28 C          64.5228   90.7883   14.7905 C.3     1  UNL1        0.1564
     29 N          65.7945   91.4482   15.2347 N.am    1  UNL1       -0.2727
     30 C          67.1613   91.1989   14.6693 C.3     1  UNL1        0.0943
     31 C          68.1342   92.0699   15.4074 C.3     1  UNL1        0.0311
     32 C          67.3686   92.8575   16.4290 C.3     1  UNL1        0.0870
     33 C          65.9226   92.4733   16.3223 C.2     1  UNL1        0.2260
     34 O          64.8016   93.0184   17.1566 O.2     1  UNL1       -0.2749
     35 C          63.8501   91.2315   13.5251 C.3     1  UNL1        0.0564
     36 C          64.6072   92.0470   12.5192 C.ar    1  UNL1       -0.0094
     37 C          65.6059   93.0672   12.9795 C.ar    1  UNL1       -0.0025
     38 C          66.3630   93.8827   11.9736 C.ar    1  UNL1        0.0111
     39 C          66.1214   93.6779   10.5074 C.ar    1  UNL1        0.0585
     40 CL         66.8785   94.4933    9.5015 Cl      1  UNL1       -0.0822
     41 C          65.1227   92.6577   10.0471 C.ar    1  UNL1        0.0225
     42 C          64.3656   91.8422   11.0530 C.ar    1  UNL1        0.0546
     43 CL         63.3670   90.8220   10.5928 Cl      1  UNL1       -0.0825
@<TRIPOS>BOND
     1    21    22    1
     2    22    20    1
     3    20    16    1
     4    16    17    2
     5    16    18   am
     6    18    15    1
     7    15    24    1
     8    24    25    1
     9    25    26    1
    10    25    27    1
    11    15     9    1
    12     9    10   ar
    13    10    11   ar
    14    11    12   ar
    15    12    13   ar
    16    13    14   ar
    17    14     1    1
    18     1     2    1
    19     2     3    1
    20     3     4    1
    21     4     5   am
    22     5     6    2
    23     5    28    1
    24    28    35    1
    25    35    36    1
    26    36    37   ar
    27    37    38   ar
    28    38    39   ar
    29    39    40    1
    30    39    41   ar
    31    41    42   ar
    32    42    43    1
    33    28    29    1
    34    29    30    1
    35    30    31    1
    36    31    32    1
    37    32    33    1
    38    33    34    2
    39     4     7    1
    40     7     8    1
    41    14     9   ar
    42     8     1    1
    43    42    36   ar
    44    33    29   am
    45    22    23    1
    46    18    19    1
@<TRIPOS>MOLECULE
*****
 43 46 0 0 0
SMALL
GASTEIGER

@<TRIPOS>ATOM
      1 N          58.9506   94.8908   -3.8091 N.pl3   1  UNL1       -0.3043
      2 C          59.0552   93.4000   -3.6799 C.3     1  UNL1        0.1123
      3 C          59.7301   92.7964   -2.4840 C.3     1  UNL1        0.1149
      4 N          60.3004   93.6835   -1.4173 N.am    1  UNL1       -0.2747
      5 C          60.9752   93.0799   -0.2214 C.2     1  UNL1        0.2442
      6 O          61.0799   91.5891   -0.0922 O.2     1  UNL1       -0.2731
      7 C          60.1957   95.1743   -1.5464 C.3     1  UNL1        0.1149
      8 C          59.5208   95.7779   -2.7424 C.3     1  UNL1        0.1123
      9 C          56.7837   95.6477   -5.0264 C.ar    1  UNL1        0.0088
     10 C          56.1088   96.2513   -6.2222 C.ar    1  UNL1       -0.0015
     11 C          56.9260   96.7016   -7.3968 C.ar    1  UNL1       -0.0002
     12 C          58.4179   96.5483   -7.3754 C.ar    1  UNL1        0.0012
     13 C          59.0928   95.9447   -6.1795 C.ar    1  UNL1        0.0143
     14 C          58.2756   95.4944   -5.0050 C.ar    1  UNL1        0.0454
     15 C          55.9666   95.1974   -3.8518 C.3     1  UNL1        0.0953
     16 C          56.0792   93.1201   -2.2956 C.2     1  UNL1        0.2388
     17 O          56.6633   93.9685   -1.2052 O.2     1  UNL1       -0.2736
     18 N          55.7308   93.7345   -3.6189 N.am    1  UNL1       -0.3010
     19 H          55.3474   93.1776   -4.3345 H       1  UNL1        0.1497
     20 C          55.8434   91.6571   -2.0626 C.3     1  UNL1        0.1549
     21 C          55.0506   89.6720   -3.5394 C.3     1  UNL1        0.0862
     22 N          56.1041   90.6710   -3.1625 N.3     1  UNL1       -0.2887
     23 H          56.3093   91.2133   -4.0016 H       1  UNL1        0.1237
     24 C          55.3852   96.2100   -2.9102 C.3     1  UNL1        0.0242
     25 C          53.9142   96.2035   -2.6167 C.3     1  UNL1        0.0020
     26 C          52.9266   96.3957   -3.7292 C.3     1  UNL1        0.0001
     27 C          53.4308   96.0048   -1.2107 C.3     1  UNL1        0.0001
     28 C          61.5454   93.9670    0.8453 C.3     1  UNL1        0.1564
     29 N          62.8996   94.5855    0.6617 N.am    1  UNL1       -0.2727
     30 C          63.5483   95.5767    1.5818 C.3     1  UNL1        0.0943
     31 C          64.8924   95.9252    1.0145 C.3     1  UNL1        0.0311
     32 C          65.0745   95.1493   -0.2562 C.3     1  UNL1        0.0870
     33 C          63.8429   94.3213   -0.4744 C.2     1  UNL1        0.2260
     34 O          63.5977   93.3923   -1.6261 O.2     1  UNL1       -0.2749
     35 C          60.7615   94.2356    2.0956 C.3     1  UNL1        0.0564
     36 C          60.4855   93.1218    3.0616 C.ar    1  UNL1       -0.0094
     37 C          59.1130   92.9571    3.6442 C.ar    1  UNL1       -0.0025
     38 C          58.8370   91.8433    4.6102 C.ar    1  UNL1        0.0111
     39 C          59.9334   90.8941    4.9936 C.ar    1  UNL1        0.0585
     40 CL         59.6574   89.7802    5.9596 Cl      1  UNL1       -0.0822
     41 C          61.3058   91.0588    4.4111 C.ar    1  UNL1        0.0225
     42 C          61.5818   92.1726    3.4451 C.ar    1  UNL1        0.0546
     43 CL         62.9542   92.3374    2.8625 Cl      1  UNL1       -0.0825
@<TRIPOS>BOND
     1    21    22    1
     2    22    20    1
     3    20    16    1
     4    16    17    2
     5    16    18   am
     6    18    15    1
     7    15    24    1
     8    24    25    1
     9    25    26    1
    10    25    27    1
    11    15     9    1
    12     9    10   ar
    13    10    11   ar
    14    11    12   ar
    15    12    13   ar
    16    13    14   ar
    17    14     1    1
    18     1     2    1
    19     2     3    1
    20     3     4    1
    21     4     5   am
    22     5     6    2
    23     5    28    1
    24    28    35    1
    25    35    36    1
    26    36    37   ar
    27    37    38   ar
    28    38    39   ar
    29    39    40    1
    30    39    41   ar
    31    41    42   ar
    32    42    43    1
    33    28    29    1
    34    29    30    1
    35    30    31    1
    36    31    32    1
    37    32    33    1
    38    33    34    2
    39     4     7    1
    40     7     8    1
    41    14     9   ar
    42     8     1    1
    43    42    36   ar
    44    33    29   am
    45    22    23    1
    46    18    19    1
@<TRIPOS>MOLECULE
*****
 43 46 0 0 0
SMALL
GASTEIGER

@<TRIPOS>ATOM
      1 N          62.6756   87.1577   10.4677 N.pl3   1  UNL1       -0.3043
      2 C          62.7316   86.4826   11.8061 C.3     1  UNL1        0.1123
      3 C          63.2273   87.2349   13.0054 C.3     1  UNL1        0.1149
      4 N          63.6671   88.6623   12.8663 N.am    1  UNL1       -0.2747
      5 C          64.1628   89.4145   14.0656 C.2     1  UNL1        0.2442
      6 O          64.2189   88.7395   15.4039 O.2     1  UNL1       -0.2731
      7 C          63.6111   89.3373   11.5280 C.3     1  UNL1        0.1149
      8 C          63.1153   88.5850   10.3287 C.3     1  UNL1        0.1123
      9 C          60.9276   86.8471    8.5709 C.ar    1  UNL1        0.0088
     10 C          60.4318   86.0948    7.3716 C.ar    1  UNL1       -0.0015
     11 C          61.1884   84.9006    6.8700 C.ar    1  UNL1       -0.0002
     12 C          62.4406   84.4588    7.5676 C.ar    1  UNL1        0.0012
     13 C          62.9363   85.2111    8.7668 C.ar    1  UNL1        0.0143
     14 C          62.1798   86.4053    9.2684 C.ar    1  UNL1        0.0454
     15 C          60.1710   88.0413    9.0725 C.3     1  UNL1        0.0953
     16 C          58.9512   89.2946    7.1513 C.2     1  UNL1        0.2388
     17 O          58.0321   88.1230    6.9705 O.2     1  UNL1       -0.2736
     18 N          60.0207   89.2537    8.2023 N.am    1  UNL1       -0.3010
     19 H          60.6239   90.0227    8.3209 H       1  UNL1        0.1497
     20 C          58.8009   90.5071    6.2810 C.3     1  UNL1        0.1549
     21 C          59.7306   92.0611    4.4180 C.3     1  UNL1        0.0862
     22 N          59.9269   90.9319    5.3857 N.3     1  UNL1       -0.2887
     23 H          60.7025   91.1962    5.9932 H       1  UNL1        0.1237
     24 C          59.5649   88.0230   10.4444 C.3     1  UNL1        0.0242
     25 C          59.5843   89.2622   11.2895 C.3     1  UNL1        0.0020
     26 C          58.9626   89.2489   12.6545 C.3     1  UNL1        0.0001
     27 C          60.2254   90.5147   10.7696 C.3     1  UNL1        0.0001
     28 C          64.6026   90.8418   13.9265 C.3     1  UNL1        0.1564
     29 N          65.6564   91.3944   14.8398 N.am    1  UNL1       -0.2727
     30 C          67.1392   91.2581   14.6593 C.3     1  UNL1        0.0943
     31 C          67.8117   91.9597   15.8019 C.3     1  UNL1        0.0311
     32 C          66.7445   92.5296   16.6886 C.3     1  UNL1        0.0870
     33 C          65.4124   92.1802   16.0940 C.2     1  UNL1        0.2260
     34 O          64.0718   92.5514   16.6551 O.2     1  UNL1       -0.2749
     35 C          63.9884   91.7167   12.8740 C.3     1  UNL1        0.0564
     36 C          64.8508   92.6523   12.0797 C.ar    1  UNL1       -0.0094
     37 C          65.8673   93.5084   12.7753 C.ar    1  UNL1       -0.0025
     38 C          66.7296   94.4440   11.9809 C.ar    1  UNL1        0.0111
     39 C          66.5754   94.5236   10.4909 C.ar    1  UNL1        0.0585
     40 CL         67.4377   95.4592    9.6966 Cl      1  UNL1       -0.0822
     41 C          65.5589   93.6675    9.7954 C.ar    1  UNL1        0.0225
     42 C          64.6966   92.7319   10.5898 C.ar    1  UNL1        0.0546
     43 CL         63.6801   91.8758    9.8942 Cl      1  UNL1       -0.0825
@<TRIPOS>BOND
     1    21    22    1
     2    22    20    1
     3    20    16    1
     4    16    17    2
     5    16    18   am
     6    18    15    1
     7    15    24    1
     8    24    25    1
     9    25    26    1
    10    25    27    1
    11    15     9    1
    12     9    10   ar
    13    10    11   ar
    14    11    12   ar
    15    12    13   ar
    16    13    14   ar
    17    14     1    1
    18     1     2    1
    19     2     3    1
    20     3     4    1
    21     4     5   am
    22     5     6    2
    23     5    28    1
    24    28    35    1
    25    35    36    1
    26    36    37   ar
    27    37    38   ar
    28    38    39   ar
    29    39    40    1
    30    39    41   ar
    31    41    42   ar
    32    42    43    1
    33    28    29    1
    34    29    30    1
    35    30    31    1
    36    31    32    1
    37    32    33    1
    38    33    34    2
    39     4     7    1
    40     7     8    1
    41    14     9   ar
    42     8     1    1
    43    42    36   ar
    44    33    29   am
    45    22    23    1
    46    18    19    1
@<TRIPOS>MOLECULE
*****
 43 46 0 0 0
SMALL
GASTEIGER

@<TRIPOS>ATOM
      1 N          63.7706   86.7175   14.8092 N.pl3   1  UNL1       -0.3043
      2 C          63.0510   87.4131   15.9265 C.3     1  UNL1        0.1123
      3 C          63.2592   88.8811   16.1536 C.3     1  UNL1        0.1149
      4 N          64.1870   89.6536   15.2633 N.am    1  UNL1       -0.2747
      5 C          64.3952   91.1216   15.4904 C.2     1  UNL1        0.2442
      6 O          63.6756   91.8171   16.6077 O.2     1  UNL1       -0.2731
      7 C          64.9066   88.9580   14.1460 C.3     1  UNL1        0.1149
      8 C          64.6983   87.4899   13.9190 C.3     1  UNL1        0.1123
      9 C          62.9835   84.7657   13.2856 C.ar    1  UNL1        0.0088
     10 C          62.7753   83.2977   13.0587 C.ar    1  UNL1       -0.0015
     11 C          63.1459   82.3134   14.1282 C.ar    1  UNL1       -0.0002
     12 C          63.7247   82.7971   15.4247 C.ar    1  UNL1        0.0012
     13 C          63.9329   84.2651   15.6517 C.ar    1  UNL1        0.0143
     14 C          63.5623   85.2494   14.5822 C.ar    1  UNL1        0.0454
     15 C          62.6129   85.7500   12.2161 C.3     1  UNL1        0.0953
     16 C          61.8331   88.2231   12.0566 C.2     1  UNL1        0.2388
     17 O          60.5173   87.7721   11.4954 O.2     1  UNL1       -0.2736
     18 N          62.8809   87.2121   12.4170 N.am    1  UNL1       -0.3010
     19 H          63.7446   87.5082   12.7854 H       1  UNL1        0.1497
     20 C          62.1012   89.6853   12.2575 C.3     1  UNL1        0.1549
     21 C          62.2916   90.1611    9.7105 C.3     1  UNL1        0.0862
     22 N          61.9886   90.6342   11.1012 N.3     1  UNL1       -0.2887
     23 H          61.0275   90.9759   11.0932 H       1  UNL1        0.1237
     24 C          61.9743   85.2722   10.9458 C.3     1  UNL1        0.0242
     25 C          62.8216   84.9889    9.7408 C.3     1  UNL1        0.0020
     26 C          63.7583   83.8173    9.7413 C.3     1  UNL1        0.0001
     27 C          62.7322   85.8771    8.5354 C.3     1  UNL1        0.0001
     28 C          65.3230   91.8940   14.6002 C.3     1  UNL1        0.1564
     29 N          66.5990   92.4557   15.1537 N.am    1  UNL1       -0.2727
     30 C          67.5290   91.7613   16.1038 C.3     1  UNL1        0.0943
     31 C          68.6738   92.6868   16.3915 C.3     1  UNL1        0.0311
     32 C          68.4513   93.9533   15.6192 C.3     1  UNL1        0.0870
     33 C          67.1690   93.8105   14.8541 C.2     1  UNL1        0.2260
     34 O          66.5631   94.8414   13.9486 O.2     1  UNL1       -0.2749
     35 C          64.9748   92.1047   13.1564 C.3     1  UNL1        0.0564
     36 C          66.0613   92.1654   12.1240 C.ar    1  UNL1       -0.0094
     37 C          67.4564   91.7427   12.4778 C.ar    1  UNL1       -0.0025
     38 C          68.5430   91.8033   11.4454 C.ar    1  UNL1        0.0111
     39 C          68.2343   92.2867   10.0593 C.ar    1  UNL1        0.0585
     40 CL         69.3209   92.3474    9.0269 Cl      1  UNL1       -0.0822
     41 C          66.8393   92.7094    9.7056 C.ar    1  UNL1        0.0225
     42 C          65.7528   92.6487   10.7380 C.ar    1  UNL1        0.0546
     43 CL         64.3577   93.0714   10.3844 Cl      1  UNL1       -0.0825
@<TRIPOS>BOND
     1    21    22    1
     2    22    20    1
     3    20    16    1
     4    16    17    2
     5    16    18   am
     6    18    15    1
     7    15    24    1
     8    24    25    1
     9    25    26    1
    10    25    27    1
    11    15     9    1
    12     9    10   ar
    13    10    11   ar
    14    11    12   ar
    15    12    13   ar
    16    13    14   ar
    17    14     1    1
    18     1     2    1
    19     2     3    1
    20     3     4    1
    21     4     5   am
    22     5     6    2
    23     5    28    1
    24    28    35    1
    25    35    36    1
    26    36    37   ar
    27    37    38   ar
    28    38    39   ar
    29    39    40    1
    30    39    41   ar
    31    41    42   ar
    32    42    43    1
    33    28    29    1
    34    29    30    1
    35    30    31    1
    36    31    32    1
    37    32    33    1
    38    33    34    2
    39     4     7    1
    40     7     8    1
    41    14     9   ar
    42     8     1    1
    43    42    36   ar
    44    33    29   am
    45    22    23    1
    46    18    19    1
