@<TRIPOS>MOLECULE
*****
 16 18 0 0 0
SMALL
GASTEIGER

@<TRIPOS>ATOM
      1 C          65.0527   92.3964   12.0526 C.ar    1  UNL1        0.1445
      2 C          65.7760   92.5656   13.3557 C.ar    1  UNL1        0.0718
      3 C          66.7791   93.5784   13.8227 C.ar    1  UNL1        0.0467
      4 C          67.1557   93.2406   15.2348 C.ar    1  UNL1        0.1797
      5 O          66.3855   92.0191   15.6406 O.2     1  UNL1       -0.4502
      6 C          65.5327   91.6019   14.4792 C.ar    1  UNL1        0.1514
      7 C          64.5662   90.4690   14.2995 C.ar    1  UNL1        0.0753
      8 C          63.8429   90.2998   12.9963 C.ar    1  UNL1        0.1546
      9 O          62.8763   89.1668   12.8167 O.2     1  UNL1       -0.4208
     10 C          62.1530   88.9976   11.5136 C.ar    1  UNL1        0.3459
     11 O          61.1865   87.8647   11.3339 O.2     1  UNL1       -0.2445
     12 C          62.3962   89.9613   10.3900 C.ar    1  UNL1        0.0825
     13 C          63.3628   91.0942   10.5697 C.ar    1  UNL1        0.0127
     14 C          64.0861   91.2634   11.8729 C.ar    1  UNL1        0.0690
     15 C          66.5638   93.2778   10.1317 C.3     1  UNL1        0.2525
     16 O          65.2959   93.3600   10.9290 O.3     1  UNL1       -0.4712
@<TRIPOS>BOND
     1    15    16    1
     2    16     1    1
     3     1     2   ar
     4     2     3   ar
     5     3     4   ar
     6     4     5   ar
     7     5     6   ar
     8     6     7   ar
     9     7     8   ar
    10     8     9   ar
    11     9    10   ar
    12    10    11    2
    13    10    12   ar
    14    12    13   ar
    15    13    14   ar
    16    14     1   ar
    17     6     2   ar
    18    14     8   ar
@<TRIPOS>MOLECULE
*****
 16 18 0 0 0
SMALL
GASTEIGER

@<TRIPOS>ATOM
      1 C          64.1962   91.2889   13.9223 C.ar    1  UNL1        0.1445
      2 C          63.8495   91.2589   12.4633 C.ar    1  UNL1        0.0718
      3 C          62.6989   90.6507   11.7174 C.ar    1  UNL1        0.0467
      4 C          62.8849   90.9452   10.2584 C.ar    1  UNL1        0.1797
      5 O          64.1503   91.7353   10.1026 O.2     1  UNL1       -0.4502
      6 C          64.7465   91.9292   11.4653 C.ar    1  UNL1        0.1514
      7 C          65.9903   92.6296   11.9263 C.ar    1  UNL1        0.0753
      8 C          66.3370   92.6595   13.3854 C.ar    1  UNL1        0.1546
      9 O          67.5808   93.3599   13.8464 O.2     1  UNL1       -0.4208
     10 C          67.9276   93.3899   15.3054 C.ar    1  UNL1        0.3459
     11 O          69.1714   94.0902   15.7665 O.2     1  UNL1       -0.2445
     12 C          67.0306   92.7196   16.3035 C.ar    1  UNL1        0.0825
     13 C          65.7868   92.0193   15.8425 C.ar    1  UNL1        0.0127
     14 C          65.4400   91.9893   14.3834 C.ar    1  UNL1        0.0690
     15 C          63.6112   89.2305   15.3957 C.3     1  UNL1        0.2525
     16 O          63.2992   90.6186   14.9204 O.3     1  UNL1       -0.4712
@<TRIPOS>BOND
     1    15    16    1
     2    16     1    1
     3     1     2   ar
     4     2     3   ar
     5     3     4   ar
     6     4     5   ar
     7     5     6   ar
     8     6     7   ar
     9     7     8   ar
    10     8     9   ar
    11     9    10   ar
    12    10    11    2
    13    10    12   ar
    14    12    13   ar
    15    13    14   ar
    16    14     1   ar
    17     6     2   ar
    18    14     8   ar
@<TRIPOS>MOLECULE
*****
 16 18 0 0 0
SMALL
GASTEIGER

@<TRIPOS>ATOM
      1 C          61.9515   87.4254   11.1793 C.ar    1  UNL1        0.1445
      2 C          61.0990   87.6142    9.9597 C.ar    1  UNL1        0.0718
      3 C          60.2824   86.6533    9.1473 C.ar    1  UNL1        0.0467
      4 C          59.6382   87.4209    8.0312 C.ar    1  UNL1        0.1797
      5 O          60.0566   88.8561    8.1537 O.2     1  UNL1       -0.4502
      6 C          60.9594   88.9756    9.3456 C.ar    1  UNL1        0.1514
      7 C          61.6724   90.1482    9.9511 C.ar    1  UNL1        0.0753
      8 C          62.5250   89.9594   11.1707 C.ar    1  UNL1        0.1546
      9 O          63.2380   91.1320   11.7762 O.2     1  UNL1       -0.4208
     10 C          64.0906   90.9432   12.9958 C.ar    1  UNL1        0.3459
     11 O          64.8037   92.1158   13.6013 O.2     1  UNL1       -0.2445
     12 C          64.2303   89.5818   13.6099 C.ar    1  UNL1        0.0825
     13 C          63.5172   88.4092   13.0044 C.ar    1  UNL1        0.0127
     14 C          62.6646   88.5980   11.7847 C.ar    1  UNL1        0.0690
     15 C          62.7660   84.9628   11.0306 C.3     1  UNL1        0.2525
     16 O          62.0912   86.0640   11.7934 O.3     1  UNL1       -0.4712
@<TRIPOS>BOND
     1    15    16    1
     2    16     1    1
     3     1     2   ar
     4     2     3   ar
     5     3     4   ar
     6     4     5   ar
     7     5     6   ar
     8     6     7   ar
     9     7     8   ar
    10     8     9   ar
    11     9    10   ar
    12    10    11    2
    13    10    12   ar
    14    12    13   ar
    15    13    14   ar
    16    14     1   ar
    17     6     2   ar
    18    14     8   ar
@<TRIPOS>MOLECULE
*****
 16 18 0 0 0
SMALL
GASTEIGER

@<TRIPOS>ATOM
      1 C          62.9703   86.5990   12.1728 C.ar    1  UNL1        0.1445
      2 C          63.4879   87.7665   12.9597 C.ar    1  UNL1        0.0718
      3 C          63.4513   89.2442   12.7046 C.ar    1  UNL1        0.0467
      4 C          64.1337   89.9295   13.8512 C.ar    1  UNL1        0.1797
      5 O          64.5919   88.8754   14.8149 O.2     1  UNL1       -0.4502
      6 C          64.1928   87.5385   14.2640 C.ar    1  UNL1        0.1514
      7 C          64.3802   86.1431   14.7814 C.ar    1  UNL1        0.0753
      8 C          63.8627   84.9757   13.9945 C.ar    1  UNL1        0.1546
      9 O          64.0501   83.5802   14.5120 O.2     1  UNL1       -0.4208
     10 C          63.5326   82.4128   13.7251 C.ar    1  UNL1        0.3459
     11 O          63.7200   81.0174   14.2425 O.2     1  UNL1       -0.2445
     12 C          62.8276   82.6406   12.4208 C.ar    1  UNL1        0.0825
     13 C          62.6402   84.0360   11.9034 C.ar    1  UNL1        0.0127
     14 C          63.1578   85.2036   12.6903 C.ar    1  UNL1        0.0690
     15 C          60.8097   87.1884   10.8560 C.3     1  UNL1        0.2525
     16 O          62.2654   86.8269   10.8685 O.3     1  UNL1       -0.4712
@<TRIPOS>BOND
     1    15    16    1
     2    16     1    1
     3     1     2   ar
     4     2     3   ar
     5     3     4   ar
     6     4     5   ar
     7     5     6   ar
     8     6     7   ar
     9     7     8   ar
    10     8     9   ar
    11     9    10   ar
    12    10    11    2
    13    10    12   ar
    14    12    13   ar
    15    13    14   ar
    16    14     1   ar
    17     6     2   ar
    18    14     8   ar
@<TRIPOS>MOLECULE
*****
 16 18 0 0 0
SMALL
GASTEIGER

@<TRIPOS>ATOM
      1 C          63.2059   89.9758   12.6360 C.ar    1  UNL1        0.1445
      2 C          62.2643   89.4861   11.5760 C.ar    1  UNL1        0.0718
      3 C          61.2440   88.3866   11.5700 C.ar    1  UNL1        0.0467
      4 C          60.5973   88.3618   10.2169 C.ar    1  UNL1        0.1797
      5 O          61.2179   89.4460    9.3865 O.2     1  UNL1       -0.4502
      6 C          62.2481   90.1409   10.2266 C.ar    1  UNL1        0.1514
      7 C          63.1736   91.2853    9.9371 C.ar    1  UNL1        0.0753
      8 C          64.1153   91.7749   10.9970 C.ar    1  UNL1        0.1546
      9 O          65.0408   92.9193   10.7074 O.2     1  UNL1       -0.4208
     10 C          65.9825   93.4089   11.7674 C.ar    1  UNL1        0.3459
     11 O          66.9080   94.5533   11.4779 O.2     1  UNL1       -0.2445
     12 C          65.9987   92.7542   13.1169 C.ar    1  UNL1        0.0825
     13 C          65.0732   91.6098   13.4064 C.ar    1  UNL1        0.0127
     14 C          64.1315   91.1202   12.3464 C.ar    1  UNL1        0.0690
     15 C          64.2214   88.2429   14.2840 C.3     1  UNL1        0.2525
     16 O          63.2222   89.3210   13.9855 O.3     1  UNL1       -0.4712
@<TRIPOS>BOND
     1    15    16    1
     2    16     1    1
     3     1     2   ar
     4     2     3   ar
     5     3     4   ar
     6     4     5   ar
     7     5     6   ar
     8     6     7   ar
     9     7     8   ar
    10     8     9   ar
    11     9    10   ar
    12    10    11    2
    13    10    12   ar
    14    12    13   ar
    15    13    14   ar
    16    14     1   ar
    17     6     2   ar
    18    14     8   ar
@<TRIPOS>MOLECULE
*****
 16 18 0 0 0
SMALL
GASTEIGER

@<TRIPOS>ATOM
      1 C          62.0516   89.1658   11.0242 C.ar    1  UNL1        0.1445
      2 C          61.2193   88.4844    9.9787 C.ar    1  UNL1        0.0718
      3 C          60.4106   89.0191    8.8341 C.ar    1  UNL1        0.0467
      4 C          59.7881   87.8545    8.1226 C.ar    1  UNL1        0.1797
      5 O          60.2121   86.6001    8.8275 O.2     1  UNL1       -0.4502
      6 C          61.0967   86.9894    9.9746 C.ar    1  UNL1        0.1514
      7 C          61.8063   86.1758   11.0160 C.ar    1  UNL1        0.0753
      8 C          62.6385   86.8572   12.0615 C.ar    1  UNL1        0.1546
      9 O          63.3482   86.0435   13.1029 O.2     1  UNL1       -0.4208
     10 C          64.1804   86.7249   14.1484 C.ar    1  UNL1        0.3459
     11 O          64.8900   85.9112   15.1897 O.2     1  UNL1       -0.2445
     12 C          64.3032   88.2199   14.1525 C.ar    1  UNL1        0.0825
     13 C          63.5935   89.0335   13.1112 C.ar    1  UNL1        0.0127
     14 C          62.7612   88.3521   12.0656 C.ar    1  UNL1        0.0690
     15 C          63.1359   91.3369   10.0967 C.3     1  UNL1        0.2525
     16 O          62.1743   90.6608   11.0284 O.3     1  UNL1       -0.4712
@<TRIPOS>BOND
     1    15    16    1
     2    16     1    1
     3     1     2   ar
     4     2     3   ar
     5     3     4   ar
     6     4     5   ar
     7     5     6   ar
     8     6     7   ar
     9     7     8   ar
    10     8     9   ar
    11     9    10   ar
    12    10    11    2
    13    10    12   ar
    14    12    13   ar
    15    13    14   ar
    16    14     1   ar
    17     6     2   ar
    18    14     8   ar
@<TRIPOS>MOLECULE
*****
 16 18 0 0 0
SMALL
GASTEIGER

@<TRIPOS>ATOM
      1 C          63.3194   88.1466   12.6366 C.ar    1  UNL1        0.1445
      2 C          63.8431   89.4487   13.1658 C.ar    1  UNL1        0.0718
      3 C          64.7261   89.7751   14.3337 C.ar    1  UNL1        0.0467
      4 C          64.9130   91.2629   14.3718 C.ar    1  UNL1        0.1797
      5 O          64.1456   91.8561   13.2276 O.2     1  UNL1       -0.4502
      6 C          63.4844   90.7348   12.4822 C.ar    1  UNL1        0.1514
      7 C          62.6019   90.7188   11.2694 C.ar    1  UNL1        0.0753
      8 C          62.0782   89.4167   10.7401 C.ar    1  UNL1        0.1546
      9 O          61.1957   89.4007    9.5272 O.2     1  UNL1       -0.4208
     10 C          60.6720   88.0985    8.9979 C.ar    1  UNL1        0.3459
     11 O          59.7896   88.0825    7.7851 O.2     1  UNL1       -0.2445
     12 C          61.0307   86.8124    9.6815 C.ar    1  UNL1        0.0825
     13 C          61.9132   86.8284   10.8943 C.ar    1  UNL1        0.0127
     14 C          62.4369   88.1306   11.4236 C.ar    1  UNL1        0.0690
     15 C          64.2167   86.8799   14.7199 C.3     1  UNL1        0.2525
     16 O          63.6781   86.8604   13.3201 O.3     1  UNL1       -0.4712
@<TRIPOS>BOND
     1    15    16    1
     2    16     1    1
     3     1     2   ar
     4     2     3   ar
     5     3     4   ar
     6     4     5   ar
     7     5     6   ar
     8     6     7   ar
     9     7     8   ar
    10     8     9   ar
    11     9    10   ar
    12    10    11    2
    13    10    12   ar
    14    12    13   ar
    15    13    14   ar
    16    14     1   ar
    17     6     2   ar
    18    14     8   ar
@<TRIPOS>MOLECULE
*****
 16 18 0 0 0
SMALL
GASTEIGER

@<TRIPOS>ATOM
      1 C          63.6626   88.2388   13.1137 C.ar    1  UNL1        0.1445
      2 C          62.9308   88.6384   11.8668 C.ar    1  UNL1        0.0718
      3 C          62.7181   89.9706   11.2112 C.ar    1  UNL1        0.0467
      4 C          61.8980   89.7528    9.9742 C.ar    1  UNL1        0.1797
      5 O          61.6038   88.2859    9.8654 O.2     1  UNL1       -0.4502
      6 C          62.2421   87.5972   11.0351 C.ar    1  UNL1        0.1514
      7 C          62.2853   86.1565   11.4503 C.ar    1  UNL1        0.0753
      8 C          63.0171   85.7569   12.6972 C.ar    1  UNL1        0.1546
      9 O          63.0602   84.3161   13.1124 O.2     1  UNL1       -0.4208
     10 C          63.7920   83.9166   14.3594 C.ar    1  UNL1        0.3459
     11 O          63.8351   82.4758   14.7746 O.2     1  UNL1       -0.2445
     12 C          64.4806   84.9577   15.1911 C.ar    1  UNL1        0.0825
     13 C          64.4375   86.3984   14.7759 C.ar    1  UNL1        0.0127
     14 C          63.7057   86.7980   13.5289 C.ar    1  UNL1        0.0690
     15 C          63.5436   90.2158   14.7952 C.3     1  UNL1        0.2525
     16 O          64.3512   89.2800   13.9455 O.3     1  UNL1       -0.4712
@<TRIPOS>BOND
     1    15    16    1
     2    16     1    1
     3     1     2   ar
     4     2     3   ar
     5     3     4   ar
     6     4     5   ar
     7     5     6   ar
     8     6     7   ar
     9     7     8   ar
    10     8     9   ar
    11     9    10   ar
    12    10    11    2
    13    10    12   ar
    14    12    13   ar
    15    13    14   ar
    16    14     1   ar
    17     6     2   ar
    18    14     8   ar
@<TRIPOS>MOLECULE
*****
 16 18 0 0 0
SMALL
GASTEIGER

@<TRIPOS>ATOM
      1 C          64.5551   90.4776   13.8030 C.ar    1  UNL1        0.1445
      2 C          65.5369   91.6111   13.8375 C.ar    1  UNL1        0.0718
      3 C          66.5115   92.0632   14.8842 C.ar    1  UNL1        0.0467
      4 C          67.2346   93.2664   14.3554 C.ar    1  UNL1        0.1797
      5 O          66.7069   93.5578   12.9819 O.2     1  UNL1       -0.4502
      6 C          65.6576   92.5347   12.6618 C.ar    1  UNL1        0.1514
      7 C          64.7965   92.3249   11.4516 C.ar    1  UNL1        0.0753
      8 C          63.8147   91.1914   11.4172 C.ar    1  UNL1        0.1546
      9 O          62.9536   90.9816   10.2070 O.2     1  UNL1       -0.4208
     10 C          61.9718   89.8481   10.1725 C.ar    1  UNL1        0.3459
     11 O          61.1107   89.6383    8.9624 O.2     1  UNL1       -0.2445
     12 C          61.8510   88.9244   11.3482 C.ar    1  UNL1        0.0825
     13 C          62.7121   89.1342   12.5583 C.ar    1  UNL1        0.0127
     14 C          63.6940   90.2678   12.5928 C.ar    1  UNL1        0.0690
     15 C          63.4198   89.8302   16.0484 C.3     1  UNL1        0.2525
     16 O          64.4343   89.5538   14.9787 O.3     1  UNL1       -0.4712
@<TRIPOS>BOND
     1    15    16    1
     2    16     1    1
     3     1     2   ar
     4     2     3   ar
     5     3     4   ar
     6     4     5   ar
     7     5     6   ar
     8     6     7   ar
     9     7     8   ar
    10     8     9   ar
    11     9    10   ar
    12    10    11    2
    13    10    12   ar
    14    12    13   ar
    15    13    14   ar
    16    14     1   ar
    17     6     2   ar
    18    14     8   ar
