@<TRIPOS>MOLECULE
*****
 55 60 0 0 0
SMALL
GASTEIGER

@<TRIPOS>ATOM
      1 N          63.0062   93.6886    1.4566 N.3     1  UNL1       -0.1862
      2 C          64.2899   93.9313    0.7196 C.3     1  UNL1        0.1775
      3 C          64.2704   94.6133   -0.6162 C.2     1  UNL1        0.2452
      4 O          65.5542   94.8560   -1.3532 O.2     1  UNL1       -0.2732
      5 N          62.9672   95.0525   -1.2151 N.am    1  UNL1       -0.2541
      6 C          62.9477   95.7345   -2.5510 C.3     1  UNL1        0.1577
      7 C          61.6445   96.1737   -3.1499 C.2     1  UNL1        0.2445
      8 O          61.6249   96.8556   -4.4857 O.2     1  UNL1       -0.2731
      9 N          60.3607   95.9309   -2.4129 N.am    1  UNL1       -0.2705
     10 C          60.3802   95.2490   -1.0770 C.3     1  UNL1        0.1359
     11 C          61.6835   94.8098   -0.4781 C.3     1  UNL1        0.1908
     12 N          61.7030   94.1278    0.8577 N.am    1  UNL1       -0.1863
     13 C          60.4193   93.8851    1.5947 C.2     1  UNL1        0.3191
     14 O          59.1161   94.3243    0.9958 O.2     1  UNL1       -0.2512
     15 N          60.4388   93.2031    2.9306 N.am    1  UNL1       -0.2836
     16 H          61.2941   92.9148    3.3237 H       1  UNL1        0.1513
     17 C          63.0258   93.0066    2.7925 C.3     1  UNL1        0.1188
     18 C          63.0658   90.4386    3.1842 C.2     1  UNL1       -0.0034
     19 C          63.7955   91.7319    2.9726 C.2     1  UNL1       -0.0071
     20 C          64.2313   95.9772   -3.2880 C.3     1  UNL1        0.0556
     21 C          64.6901   95.0063   -4.3353 C.ar    1  UNL1       -0.0198
     22 C          65.4795   95.4924   -5.5144 C.ar    1  UNL1       -0.0011
     23 C          65.9383   94.5215   -6.5617 C.ar    1  UNL1        0.0363
     24 C          65.6075   93.0644   -6.4299 C.ar    1  UNL1        0.1337
     25 O          66.0663   92.0934   -7.4771 O.3     1  UNL1       -0.5055
     26 C          64.8180   92.5782   -5.2507 C.ar    1  UNL1        0.0363
     27 C          64.3593   93.5491   -4.2034 C.ar    1  UNL1       -0.0011
     28 H          66.5594   92.3971   -8.2137 H       1  UNL1        0.2922
     29 C          59.0575   96.3702   -3.0118 C.3     1  UNL1        0.1217
     30 C          58.5984   95.7901   -4.3167 C.ar    1  UNL1        0.0135
     31 C          58.7659   96.5724   -5.5855 C.ar    1  UNL1       -0.0012
     32 C          58.3068   95.9924   -6.8904 C.ar    1  UNL1       -0.0002
     33 C          57.6803   94.6300   -6.9265 C.ar    1  UNL1        0.0016
     34 C          57.5128   93.8477   -5.6577 C.ar    1  UNL1        0.0214
     35 C          56.9349   92.4908   -5.3840 C.ar    1  UNL1        0.0719
     36 C          57.0369   92.2322   -3.9100 C.ar    1  UNL1        0.0805
     37 N          57.6777   93.4293   -3.2727 N.ar    1  UNL1       -0.3241
     38 C          57.9727   93.5983   -1.8117 C.3     1  UNL1        0.1305
     39 C          57.9718   94.4277   -4.3528 C.ar    1  UNL1        0.0577
     40 C          56.3566   91.5564   -6.4052 C.2     1  UNL1        0.2473
     41 O          57.2632   90.8191   -7.3457 O.2     1  UNL1       -0.2701
     42 N          54.8718   91.3594   -6.4858 N.am    1  UNL1       -0.3007
     43 H          54.2768   91.8433   -5.8685 H       1  UNL1        0.1497
     44 C          54.2935   90.4251   -7.5069 C.3     1  UNL1        0.0923
     45 C          53.1621   89.5136   -7.1339 C.3     1  UNL1        0.0530
     46 C          52.9931   89.0716   -5.7105 C.3     1  UNL1        0.1389
     47 O          54.1689   89.0766   -4.7791 O.3     1  UNL1       -0.3819
     48 H          54.8197   88.4216   -5.0763 H       1  UNL1        0.2104
     49 C          59.1551   92.9603    3.6676 C.3     1  UNL1        0.1177
     50 C          59.0338   91.7893    4.5971 C.ar    1  UNL1       -0.0025
     51 C          57.6786   91.2983    5.0120 C.ar    1  UNL1       -0.0026
     52 C          57.5573   90.1273    5.9415 C.ar    1  UNL1       -0.0003
     53 C          58.7913   89.4474    6.4562 C.ar    1  UNL1       -0.0000
     54 C          60.1466   89.9384    6.0414 C.ar    1  UNL1       -0.0003
     55 C          60.2679   91.1094    5.1118 C.ar    1  UNL1       -0.0026
@<TRIPOS>BOND
     1    18    19    2
     2    19    17    1
     3    17     1    1
     4     1     2    1
     5     2     3    1
     6     3     4    2
     7     3     5   am
     8     5     6    1
     9     6    20    1
    10    20    21    1
    11    21    22   ar
    12    22    23   ar
    13    23    24   ar
    14    24    25    1
    15    24    26   ar
    16    26    27   ar
    17     6     7    1
    18     7     8    2
    19     7     9   am
    20     9    29    1
    21    29    30    1
    22    30    31   ar
    23    31    32   ar
    24    32    33   ar
    25    33    34   ar
    26    34    35   ar
    27    35    40    1
    28    40    41    2
    29    40    42   am
    30    42    44    1
    31    44    45    1
    32    45    46    1
    33    46    47    1
    34    35    36   ar
    35    36    37   ar
    36    37    38    1
    37    37    39   ar
    38     9    10    1
    39    11    10    1
    40    11    12    1
    41    12    13   am
    42    13    14    2
    43    13    15   am
    44    15    49    1
    45    49    50    1
    46    50    51   ar
    47    51    52   ar
    48    52    53   ar
    49    53    54   ar
    50    54    55   ar
    51    12     1    1
    52    55    50   ar
    53    11     5    1
    54    27    21   ar
    55    39    30   ar
    56    39    34   ar
    57    25    28    1
    58    42    43    1
    59    47    48    1
    60    15    16    1
@<TRIPOS>MOLECULE
*****
 55 60 0 0 0
SMALL
GASTEIGER

@<TRIPOS>ATOM
      1 N          62.9191   84.0741    9.6265 N.3     1  UNL1       -0.1862
      2 C          62.2476   84.1207    8.2861 C.3     1  UNL1        0.1775
      3 C          61.4470   85.3257    7.8898 C.2     1  UNL1        0.2452
      4 O          60.7754   85.3723    6.5492 O.2     1  UNL1       -0.2732
      5 N          61.3179   86.4841    8.8339 N.am    1  UNL1       -0.2541
      6 C          60.5173   87.6891    8.4376 C.3     1  UNL1        0.1577
      7 C          60.3882   88.8475    9.3817 C.2     1  UNL1        0.2445
      8 O          59.5876   90.0525    8.9854 O.2     1  UNL1       -0.2731
      9 N          61.0598   88.8009   10.7223 N.am    1  UNL1       -0.2705
     10 C          61.8604   87.5959   11.1186 C.3     1  UNL1        0.1359
     11 C          61.9894   86.4375   10.1743 C.3     1  UNL1        0.1908
     12 N          62.7900   85.2325   10.5706 N.am    1  UNL1       -0.1863
     13 C          63.4616   85.1860   11.9111 C.2     1  UNL1        0.3191
     14 O          63.3325   86.3444   12.8553 O.2     1  UNL1       -0.2512
     15 N          64.2622   83.9810   12.3074 N.am    1  UNL1       -0.2836
     16 H          64.3469   83.2207   11.6877 H       1  UNL1        0.1513
     17 C          63.7197   82.8692   10.0228 C.3     1  UNL1        0.1188
     18 C          62.7489   81.2069   11.7676 C.2     1  UNL1       -0.0034
     19 C          63.0249   81.5784   10.3407 C.2     1  UNL1       -0.0071
     20 C          59.8457   87.7357    7.0972 C.3     1  UNL1        0.0556
     21 C          59.6016   89.0548    6.4261 C.ar    1  UNL1       -0.0198
     22 C          60.7509   89.8270    5.8494 C.ar    1  UNL1       -0.0011
     23 C          60.5067   91.1461    5.1783 C.ar    1  UNL1        0.0363
     24 C          59.1132   91.6930    5.0839 C.ar    1  UNL1        0.1337
     25 O          58.8690   93.0121    4.4128 O.3     1  UNL1       -0.5055
     26 C          57.9638   90.9207    5.6606 C.ar    1  UNL1        0.0363
     27 C          58.2079   89.6016    6.3317 C.ar    1  UNL1       -0.0011
     28 H          59.5870   93.4944    4.0526 H       1  UNL1        0.2922
     29 C          60.9307   89.9593   11.6664 C.3     1  UNL1        0.1217
     30 C          62.0202   90.2442   12.6574 C.ar    1  UNL1        0.0135
     31 C          61.8905   89.7650   14.0729 C.ar    1  UNL1       -0.0012
     32 C          62.9798   90.0498   15.0639 C.ar    1  UNL1       -0.0002
     33 C          64.1989   90.8138   14.6394 C.ar    1  UNL1        0.0016
     34 C          64.3286   91.2929   13.2240 C.ar    1  UNL1        0.0214
     35 C          65.4058   92.0635   12.5199 C.ar    1  UNL1        0.0719
     36 C          64.9822   92.2549   11.0937 C.ar    1  UNL1        0.0805
     37 N          63.6432   91.6027   10.9164 N.ar    1  UNL1       -0.3241
     38 C          62.8478   91.5535    9.6457 C.3     1  UNL1        0.1305
     39 C          63.2392   91.0081   12.2329 C.ar    1  UNL1        0.0577
     40 C          66.6826   92.5562   13.1342 C.2     1  UNL1        0.2473
     41 O          66.9157   94.0286   13.3001 O.2     1  UNL1       -0.2701
     42 N          67.7261   91.5764   13.5825 N.am    1  UNL1       -0.3007
     43 H          67.5731   90.6100   13.4736 H       1  UNL1        0.1497
     44 C          69.0028   92.0690   14.1968 C.3     1  UNL1        0.0923
     45 C          68.9896   92.6778   15.5676 C.3     1  UNL1        0.0530
     46 C          67.8355   92.4216   16.4909 C.3     1  UNL1        0.1389
     47 O          66.5696   93.2132   16.3465 O.3     1  UNL1       -0.3819
     48 H          66.7440   94.1435   16.5588 H       1  UNL1        0.2104
     49 C          64.9338   83.9344   13.6479 C.3     1  UNL1        0.1177
     50 C          64.3074   84.6218   14.8248 C.ar    1  UNL1       -0.0025
     51 C          64.8024   85.9703   15.2565 C.ar    1  UNL1       -0.0026
     52 C          64.1761   86.6577   16.4335 C.ar    1  UNL1       -0.0003
     53 C          63.0548   85.9965   17.1788 C.ar    1  UNL1       -0.0000
     54 C          62.5597   84.6479   16.7471 C.ar    1  UNL1       -0.0003
     55 C          63.1861   83.9606   15.5701 C.ar    1  UNL1       -0.0026
@<TRIPOS>BOND
     1    18    19    2
     2    19    17    1
     3    17     1    1
     4     1     2    1
     5     2     3    1
     6     3     4    2
     7     3     5   am
     8     5     6    1
     9     6    20    1
    10    20    21    1
    11    21    22   ar
    12    22    23   ar
    13    23    24   ar
    14    24    25    1
    15    24    26   ar
    16    26    27   ar
    17     6     7    1
    18     7     8    2
    19     7     9   am
    20     9    29    1
    21    29    30    1
    22    30    31   ar
    23    31    32   ar
    24    32    33   ar
    25    33    34   ar
    26    34    35   ar
    27    35    40    1
    28    40    41    2
    29    40    42   am
    30    42    44    1
    31    44    45    1
    32    45    46    1
    33    46    47    1
    34    35    36   ar
    35    36    37   ar
    36    37    38    1
    37    37    39   ar
    38     9    10    1
    39    11    10    1
    40    11    12    1
    41    12    13   am
    42    13    14    2
    43    13    15   am
    44    15    49    1
    45    49    50    1
    46    50    51   ar
    47    51    52   ar
    48    52    53   ar
    49    53    54   ar
    50    54    55   ar
    51    12     1    1
    52    55    50   ar
    53    11     5    1
    54    27    21   ar
    55    39    30   ar
    56    39    34   ar
    57    25    28    1
    58    42    43    1
    59    47    48    1
    60    15    16    1
@<TRIPOS>MOLECULE
*****
 55 60 0 0 0
SMALL
GASTEIGER

@<TRIPOS>ATOM
      1 N          62.3313   84.2799    9.6501 N.3     1  UNL1       -0.1862
      2 C          61.5430   84.3119    8.3743 C.3     1  UNL1        0.1775
      3 C          60.8793   85.5832    7.9345 C.2     1  UNL1        0.2452
      4 O          60.0910   85.6152    6.6587 O.2     1  UNL1       -0.2732
      5 N          61.0039   86.8224    8.7704 N.am    1  UNL1       -0.2541
      6 C          60.3403   88.0937    8.3306 C.3     1  UNL1        0.1577
      7 C          60.4649   89.3329    9.1665 C.2     1  UNL1        0.2445
      8 O          59.8013   90.6041    8.7267 O.2     1  UNL1       -0.2731
      9 N          61.2532   89.3008   10.4423 N.am    1  UNL1       -0.2705
     10 C          61.9169   88.0296   10.8822 C.3     1  UNL1        0.1359
     11 C          61.7922   86.7903   10.0462 C.3     1  UNL1        0.1908
     12 N          62.4559   85.5191   10.4860 N.am    1  UNL1       -0.1863
     13 C          63.2442   85.4870   11.7618 C.2     1  UNL1        0.3191
     14 O          63.3688   86.7262   12.5977 O.2     1  UNL1       -0.2512
     15 N          63.9078   84.2158   12.2016 N.am    1  UNL1       -0.2836
     16 H          63.8260   83.4024   11.6529 H       1  UNL1        0.1513
     17 C          62.9949   83.0086   10.0899 C.3     1  UNL1        0.1188
     18 C          62.9906   80.8597   11.5500 C.2     1  UNL1       -0.0034
     19 C          62.3744   82.1735   11.1704 C.2     1  UNL1       -0.0071
     20 C          59.5520   88.1257    7.0549 C.3     1  UNL1        0.0556
     21 C          59.4954   89.3836    6.2396 C.ar    1  UNL1       -0.0198
     22 C          58.1890   90.0953    6.0484 C.ar    1  UNL1       -0.0011
     23 C          58.1324   91.3531    5.2331 C.ar    1  UNL1        0.0363
     24 C          59.3823   91.8992    4.6091 C.ar    1  UNL1        0.1337
     25 O          59.3257   93.1571    3.7938 O.3     1  UNL1       -0.5055
     26 C          60.6889   91.1875    4.8003 C.ar    1  UNL1        0.0363
     27 C          60.7454   89.9297    5.6155 C.ar    1  UNL1       -0.0011
     28 H          58.5096   93.6016    3.6744 H       1  UNL1        0.2922
     29 C          61.3778   90.5400   11.2783 C.3     1  UNL1        0.1217
     30 C          62.7240   91.1643   11.4980 C.ar    1  UNL1        0.0135
     31 C          63.3701   91.9589   10.4021 C.ar    1  UNL1       -0.0012
     32 C          64.7162   92.5832   10.6217 C.ar    1  UNL1       -0.0002
     33 C          65.4162   92.4128   11.9374 C.ar    1  UNL1        0.0016
     34 C          64.7701   91.6181   13.0333 C.ar    1  UNL1        0.0214
     35 C          65.2157   91.2812   14.4254 C.ar    1  UNL1        0.0719
     36 C          64.1449   90.4486   15.0660 C.ar    1  UNL1        0.0805
     37 N          63.0377   90.2711   14.0699 N.ar    1  UNL1       -0.3241
     38 C          61.7671   89.5053   14.2912 C.3     1  UNL1        0.1305
     39 C          63.4240   90.9939   12.8136 C.ar    1  UNL1        0.0577
     40 C          66.5056   91.7027   15.0646 C.2     1  UNL1        0.2473
     41 O          67.7056   90.8054   14.9949 O.2     1  UNL1       -0.2701
     42 N          66.5954   93.0215   15.7736 N.am    1  UNL1       -0.3007
     43 H          65.8078   93.6104   15.8193 H       1  UNL1        0.1497
     44 C          67.8852   93.4431   16.4128 C.3     1  UNL1        0.0923
     45 C          69.0361   93.8859   15.5587 C.3     1  UNL1        0.0530
     46 C          70.0683   92.8913   15.1168 C.3     1  UNL1        0.1389
     47 O          69.9275   92.2029   13.7916 O.3     1  UNL1       -0.3819
     48 H          69.1454   91.6293   13.8066 H       1  UNL1        0.2104
     49 C          64.6961   84.1837   13.4773 C.3     1  UNL1        0.1177
     50 C          64.1437   84.8232   14.7166 C.ar    1  UNL1       -0.0025
     51 C          63.0679   84.1325   15.5012 C.ar    1  UNL1       -0.0026
     52 C          62.5154   84.7720   16.7405 C.ar    1  UNL1       -0.0003
     53 C          63.0387   86.1021   17.1952 C.ar    1  UNL1       -0.0000
     54 C          64.1145   86.7929   16.4106 C.ar    1  UNL1       -0.0003
     55 C          64.6670   86.1534   15.1713 C.ar    1  UNL1       -0.0026
@<TRIPOS>BOND
     1    18    19    2
     2    19    17    1
     3    17     1    1
     4     1     2    1
     5     2     3    1
     6     3     4    2
     7     3     5   am
     8     5     6    1
     9     6    20    1
    10    20    21    1
    11    21    22   ar
    12    22    23   ar
    13    23    24   ar
    14    24    25    1
    15    24    26   ar
    16    26    27   ar
    17     6     7    1
    18     7     8    2
    19     7     9   am
    20     9    29    1
    21    29    30    1
    22    30    31   ar
    23    31    32   ar
    24    32    33   ar
    25    33    34   ar
    26    34    35   ar
    27    35    40    1
    28    40    41    2
    29    40    42   am
    30    42    44    1
    31    44    45    1
    32    45    46    1
    33    46    47    1
    34    35    36   ar
    35    36    37   ar
    36    37    38    1
    37    37    39   ar
    38     9    10    1
    39    11    10    1
    40    11    12    1
    41    12    13   am
    42    13    14    2
    43    13    15   am
    44    15    49    1
    45    49    50    1
    46    50    51   ar
    47    51    52   ar
    48    52    53   ar
    49    53    54   ar
    50    54    55   ar
    51    12     1    1
    52    55    50   ar
    53    11     5    1
    54    27    21   ar
    55    39    30   ar
    56    39    34   ar
    57    25    28    1
    58    42    43    1
    59    47    48    1
    60    15    16    1
