@<TRIPOS>MOLECULE
*****
 25 27 0 0 0
SMALL
GASTEIGER

@<TRIPOS>ATOM
      1 C          62.8915   83.9153   13.5659 C.ar    1  UNL1        0.2002
      2 N          62.1870   85.1154   13.0062 N.ar    1  UNL1       -0.2150
      3 C          62.2602   85.4109   11.5374 C.ar    1  UNL1        0.0895
      4 C          61.5556   86.6110   10.9777 C.ar    1  UNL1        0.0307
      5 C          61.6289   86.9064    9.5090 C.ar    1  UNL1        0.0592
      6 CL         60.9243   88.1066    8.9493 Cl      1  UNL1       -0.0822
      7 C          62.4067   86.0017    8.5998 C.ar    1  UNL1        0.0116
      8 C          63.1112   84.8016    9.1595 C.ar    1  UNL1        0.0071
      9 C          63.0380   84.5062   10.6283 C.ar    1  UNL1        0.0740
     10 C          63.7426   83.3060   11.1880 C.ar    1  UNL1        0.2643
     11 O          64.5203   82.4012   10.2788 O.2     1  UNL1       -0.2668
     12 N          63.6693   83.0106   12.6567 N.ar    1  UNL1       -0.2669
     13 C          64.3739   81.8104   13.2165 C.3     1  UNL1        0.1363
     14 N          62.8183   83.6198   15.0347 N.pl3   1  UNL1       -0.3039
     15 H          62.9845   82.7063   15.3619 H       1  UNL1        0.1496
     16 C          62.4919   84.7162   16.0049 C.3     1  UNL1        0.0942
     17 C          63.5795   85.6140   16.5157 C.3     1  UNL1        0.0476
     18 C          63.8169   89.8834   15.1135 C.ar    1  UNL1        0.1387
     19 C          64.3950   88.7844   14.2721 C.ar    1  UNL1        0.0366
     20 C          64.3158   87.3613   14.7395 C.ar    1  UNL1       -0.0011
     21 C          63.6586   87.0372   16.0483 C.ar    1  UNL1       -0.0203
     22 C          63.0805   88.1362   16.8898 C.ar    1  UNL1       -0.0011
     23 C          63.1597   89.5592   16.4224 C.ar    1  UNL1        0.0366
     24 C          64.6018   91.6369   13.3645 C.3     1  UNL1        0.2525
     25 O          63.8960   91.3066   14.6462 O.3     1  UNL1       -0.4714
@<TRIPOS>BOND
     1    24    25    1
     2    25    18    1
     3    18    19   ar
     4    19    20   ar
     5    20    21   ar
     6    21    17    1
     7    17    16    1
     8    16    14    1
     9    14     1    1
    10     1     2   ar
    11     2     3   ar
    12     3     4   ar
    13     4     5   ar
    14     5     6    1
    15     5     7   ar
    16     7     8   ar
    17     8     9   ar
    18     9    10   ar
    19    10    11    2
    20    10    12   ar
    21    12    13    1
    22    21    22   ar
    23    22    23   ar
    24    23    18   ar
    25    12     1   ar
    26     9     3   ar
    27    14    15    1
@<TRIPOS>MOLECULE
*****
 25 27 0 0 0
SMALL
GASTEIGER

@<TRIPOS>ATOM
      1 C          60.9670   87.2319   10.9544 C.ar    1  UNL1        0.2002
      2 N          61.6766   86.3242   11.9148 N.ar    1  UNL1       -0.2150
      3 C          62.4976   85.1800   11.3981 C.ar    1  UNL1        0.0895
      4 C          63.2073   84.2723   12.3585 C.ar    1  UNL1        0.0307
      5 C          64.0282   83.1282   11.8418 C.ar    1  UNL1        0.0592
      6 CL         64.7379   82.2204   12.8022 Cl      1  UNL1       -0.0822
      7 C          64.1395   82.8918   10.3647 C.ar    1  UNL1        0.0116
      8 C          63.4299   83.7995    9.4044 C.ar    1  UNL1        0.0071
      9 C          62.6089   84.9436    9.9211 C.ar    1  UNL1        0.0740
     10 C          61.8992   85.8514    8.9607 C.ar    1  UNL1        0.2643
     11 O          62.0105   85.6151    7.4836 O.2     1  UNL1       -0.2668
     12 N          61.0783   86.9956    9.4774 N.ar    1  UNL1       -0.2669
     13 C          60.3686   87.9034    8.5170 C.3     1  UNL1        0.1363
     14 N          60.1460   88.3761   11.4711 N.pl3   1  UNL1       -0.3039
     15 H          59.1917   88.2450   11.6742 H       1  UNL1        0.1496
     16 C          60.7791   89.7201   11.6783 C.3     1  UNL1        0.0942
     17 C          62.1661   89.9819   11.1709 C.3     1  UNL1        0.0476
     18 C          65.4547   91.0389   14.0550 C.ar    1  UNL1        0.1387
     19 C          64.6259   89.8092   14.2806 C.ar    1  UNL1        0.0366
     20 C          63.5297   89.4569   13.3192 C.ar    1  UNL1       -0.0011
     21 C          63.2624   90.3343   12.1323 C.ar    1  UNL1       -0.0203
     22 C          64.0912   91.5640   11.9068 C.ar    1  UNL1       -0.0011
     23 C          65.1873   91.9163   12.8682 C.ar    1  UNL1        0.0366
     24 C          66.5175   92.7024   15.7442 C.3     1  UNL1        0.2525
     25 O          66.5509   91.3912   15.0164 O.3     1  UNL1       -0.4714
@<TRIPOS>BOND
     1    24    25    1
     2    25    18    1
     3    18    19   ar
     4    19    20   ar
     5    20    21   ar
     6    21    17    1
     7    17    16    1
     8    16    14    1
     9    14     1    1
    10     1     2   ar
    11     2     3   ar
    12     3     4   ar
    13     4     5   ar
    14     5     6    1
    15     5     7   ar
    16     7     8   ar
    17     8     9   ar
    18     9    10   ar
    19    10    11    2
    20    10    12   ar
    21    12    13    1
    22    21    22   ar
    23    22    23   ar
    24    23    18   ar
    25    12     1   ar
    26     9     3   ar
    27    14    15    1
@<TRIPOS>MOLECULE
*****
 25 27 0 0 0
SMALL
GASTEIGER

@<TRIPOS>ATOM
      1 C          63.4907   87.6710   13.2056 C.ar    1  UNL1        0.2002
      2 N          62.7981   88.5447   12.2021 N.ar    1  UNL1       -0.2150
      3 C          62.0471   87.9260   11.0605 C.ar    1  UNL1        0.0895
      4 C          61.3545   88.7997   10.0571 C.ar    1  UNL1        0.0307
      5 C          60.6035   88.1810    8.9156 C.ar    1  UNL1        0.0592
      6 CL         59.9109   89.0547    7.9121 Cl      1  UNL1       -0.0822
      7 C          60.5451   86.6885    8.7775 C.ar    1  UNL1        0.0116
      8 C          61.2376   85.8147    9.7810 C.ar    1  UNL1        0.0071
      9 C          61.9886   86.4335   10.9225 C.ar    1  UNL1        0.0740
     10 C          62.6812   85.5598   11.9260 C.ar    1  UNL1        0.2643
     11 O          62.6228   84.0673   11.7879 O.2     1  UNL1       -0.2668
     12 N          63.4322   86.1785   13.0675 N.ar    1  UNL1       -0.2669
     13 C          64.1248   85.3048   14.0710 C.3     1  UNL1        0.1363
     14 N          64.2417   88.2897   14.3471 N.pl3   1  UNL1       -0.3039
     15 H          65.1367   87.9561   14.5860 H       1  UNL1        0.1496
     16 C          63.6292   89.4167   15.1248 C.3     1  UNL1        0.0942
     17 C          64.3978   90.6875   15.3350 C.3     1  UNL1        0.0476
     18 C          66.7669   92.4704   11.9499 C.ar    1  UNL1        0.1387
     19 C          67.4507   92.1089   13.2351 C.ar    1  UNL1        0.0366
     20 C          66.6610   91.5147   14.3634 C.ar    1  UNL1       -0.0011
     21 C          65.1875   91.2818   14.2065 C.ar    1  UNL1       -0.0203
     22 C          64.5037   91.6433   12.9214 C.ar    1  UNL1       -0.0011
     23 C          65.2934   92.2375   11.7930 C.ar    1  UNL1        0.0366
     24 C          68.1652   92.1725    9.7805 C.3     1  UNL1        0.2525
     25 O          67.5566   93.0647   10.8215 O.3     1  UNL1       -0.4714
@<TRIPOS>BOND
     1    24    25    1
     2    25    18    1
     3    18    19   ar
     4    19    20   ar
     5    20    21   ar
     6    21    17    1
     7    17    16    1
     8    16    14    1
     9    14     1    1
    10     1     2   ar
    11     2     3   ar
    12     3     4   ar
    13     4     5   ar
    14     5     6    1
    15     5     7   ar
    16     7     8   ar
    17     8     9   ar
    18     9    10   ar
    19    10    11    2
    20    10    12   ar
    21    12    13    1
    22    21    22   ar
    23    22    23   ar
    24    23    18   ar
    25    12     1   ar
    26     9     3   ar
    27    14    15    1
@<TRIPOS>MOLECULE
*****
 25 27 0 0 0
SMALL
GASTEIGER

@<TRIPOS>ATOM
      1 C          63.5310   87.1746   13.2158 C.ar    1  UNL1        0.2002
      2 N          62.7375   86.4052   12.2018 N.ar    1  UNL1       -0.2150
      3 C          62.0269   87.1308   11.0978 C.ar    1  UNL1        0.0895
      4 C          61.2334   86.3615   10.0838 C.ar    1  UNL1        0.0307
      5 C          60.5228   87.0871    8.9800 C.ar    1  UNL1        0.0592
      6 CL         59.7292   86.3177    7.9658 Cl      1  UNL1       -0.0822
      7 C          60.6058   88.5821    8.8902 C.ar    1  UNL1        0.0116
      8 C          61.3993   89.3515    9.9042 C.ar    1  UNL1        0.0071
      9 C          62.1098   88.6259   11.0081 C.ar    1  UNL1        0.0740
     10 C          62.9034   89.3952   12.0222 C.ar    1  UNL1        0.2643
     11 O          62.9864   90.8903   11.9324 O.2     1  UNL1       -0.2668
     12 N          63.6140   88.6696   13.1260 N.ar    1  UNL1       -0.2669
     13 C          64.4075   89.4390   14.1401 C.3     1  UNL1        0.1363
     14 N          64.2416   86.4490   14.3197 N.pl3   1  UNL1       -0.3039
     15 H          65.1363   86.7434   14.6062 H       1  UNL1        0.1496
     16 C          63.5891   85.2748   14.9871 C.3     1  UNL1        0.0942
     17 C          64.1822   83.9047   14.8421 C.3     1  UNL1        0.0476
     18 C          63.2293   81.4124   11.2186 C.ar    1  UNL1        0.1387
     19 C          64.1963   82.5540   11.1104 C.ar    1  UNL1        0.0366
     20 C          64.5139   83.3847   12.3183 C.ar    1  UNL1       -0.0011
     21 C          63.8646   83.0739   13.6342 C.ar    1  UNL1       -0.0203
     22 C          62.8976   81.9323   13.7424 C.ar    1  UNL1       -0.0011
     23 C          62.5800   81.1015   12.5345 C.ar    1  UNL1        0.0366
     24 C          62.8975   79.0851   10.1124 C.3     1  UNL1        0.2525
     25 O          62.9117   80.5815   10.0107 O.3     1  UNL1       -0.4714
@<TRIPOS>BOND
     1    24    25    1
     2    25    18    1
     3    18    19   ar
     4    19    20   ar
     5    20    21   ar
     6    21    17    1
     7    17    16    1
     8    16    14    1
     9    14     1    1
    10     1     2   ar
    11     2     3   ar
    12     3     4   ar
    13     4     5   ar
    14     5     6    1
    15     5     7   ar
    16     7     8   ar
    17     8     9   ar
    18     9    10   ar
    19    10    11    2
    20    10    12   ar
    21    12    13    1
    22    21    22   ar
    23    22    23   ar
    24    23    18   ar
    25    12     1   ar
    26     9     3   ar
    27    14    15    1
@<TRIPOS>MOLECULE
*****
 25 27 0 0 0
SMALL
GASTEIGER

@<TRIPOS>ATOM
      1 C          61.3367   90.2047   10.4817 C.ar    1  UNL1        0.2002
      2 N          62.5288   90.9665    9.9835 N.ar    1  UNL1       -0.2150
      3 C          63.6284   91.3428   10.9319 C.ar    1  UNL1        0.0895
      4 C          64.8206   92.1047   10.4336 C.ar    1  UNL1        0.0307
      5 C          65.9201   92.4810   11.3820 C.ar    1  UNL1        0.0592
      6 CL         67.1123   93.2429   10.8837 Cl      1  UNL1       -0.0822
      7 C          65.8275   92.0954   12.8286 C.ar    1  UNL1        0.0116
      8 C          64.6353   91.3335   13.3268 C.ar    1  UNL1        0.0071
      9 C          63.5358   90.9572   12.3785 C.ar    1  UNL1        0.0740
     10 C          62.3436   90.1953   12.8767 C.ar    1  UNL1        0.2643
     11 O          62.2510   89.8097   14.3234 O.2     1  UNL1       -0.2668
     12 N          61.2441   89.8191   11.9284 N.ar    1  UNL1       -0.2669
     13 C          60.0518   89.0571   12.4266 C.3     1  UNL1        0.1363
     14 N          60.2371   89.8284    9.5334 N.pl3   1  UNL1       -0.3039
     15 H          59.6769   90.5283    9.1265 H       1  UNL1        0.1496
     16 C          59.9909   88.3857    9.2049 C.3     1  UNL1        0.0942
     17 C          61.0558   87.5798    8.5219 C.3     1  UNL1        0.0476
     18 C          63.1354   84.2612   10.7382 C.ar    1  UNL1        0.1387
     19 C          62.1951   85.1753   11.4664 C.ar    1  UNL1        0.0366
     20 C          61.5019   86.2814   10.7276 C.ar    1  UNL1       -0.0011
     21 C          61.7490   86.4735    9.2606 C.ar    1  UNL1       -0.0203
     22 C          62.6893   85.5595    8.5325 C.ar    1  UNL1       -0.0011
     23 C          63.3825   84.4534    9.2713 C.ar    1  UNL1        0.0366
     24 C          63.0874   81.8931   11.8057 C.3     1  UNL1        0.2525
     25 O          63.8287   83.1550   11.4770 O.3     1  UNL1       -0.4714
@<TRIPOS>BOND
     1    24    25    1
     2    25    18    1
     3    18    19   ar
     4    19    20   ar
     5    20    21   ar
     6    21    17    1
     7    17    16    1
     8    16    14    1
     9    14     1    1
    10     1     2   ar
    11     2     3   ar
    12     3     4   ar
    13     4     5   ar
    14     5     6    1
    15     5     7   ar
    16     7     8   ar
    17     8     9   ar
    18     9    10   ar
    19    10    11    2
    20    10    12   ar
    21    12    13    1
    22    21    22   ar
    23    22    23   ar
    24    23    18   ar
    25    12     1   ar
    26     9     3   ar
    27    14    15    1
@<TRIPOS>MOLECULE
*****
 25 27 0 0 0
SMALL
GASTEIGER

@<TRIPOS>ATOM
      1 C          63.1251   87.5372   12.6319 C.ar    1  UNL1        0.2002
      2 N          63.5376   86.3277   13.4174 N.ar    1  UNL1       -0.2150
      3 C          63.3310   84.9561   12.8463 C.ar    1  UNL1        0.0895
      4 C          63.7435   83.7467   13.6318 C.ar    1  UNL1        0.0307
      5 C          63.5369   82.3752   13.0606 C.ar    1  UNL1        0.0592
      6 CL         63.9494   81.1657   13.8462 Cl      1  UNL1       -0.0822
      7 C          62.9179   82.2131   11.7040 C.ar    1  UNL1        0.0116
      8 C          62.5055   83.4226   10.9184 C.ar    1  UNL1        0.0071
      9 C          62.7120   84.7941   11.4896 C.ar    1  UNL1        0.0740
     10 C          62.2996   86.0036   10.7040 C.ar    1  UNL1        0.2643
     11 O          61.6806   85.8415    9.3474 O.2     1  UNL1       -0.2668
     12 N          62.5061   87.3751   11.2752 N.ar    1  UNL1       -0.2669
     13 C          62.0937   88.5846   10.4896 C.3     1  UNL1        0.1363
     14 N          63.3317   88.9088   13.2030 N.pl3   1  UNL1       -0.3039
     15 H          62.8117   89.6696   12.8566 H       1  UNL1        0.1496
     16 C          64.3304   89.1211   14.3018 C.3     1  UNL1        0.0942
     17 C          64.5707   90.5001   14.8407 C.3     1  UNL1        0.0476
     18 C          66.2622   93.6984   12.1650 C.ar    1  UNL1        0.1387
     19 C          66.6835   93.6231   13.6027 C.ar    1  UNL1        0.0366
     20 C          66.1197   92.5570   14.4945 C.ar    1  UNL1       -0.0011
     21 C          65.1345   91.5662   13.9488 C.ar    1  UNL1       -0.0203
     22 C          64.7132   91.6416   12.5112 C.ar    1  UNL1       -0.0011
     23 C          65.2770   92.7077   11.6193 C.ar    1  UNL1        0.0366
     24 C          67.2294   94.4305    9.8675 C.3     1  UNL1        0.2525
     25 O          66.8260   94.7646   11.2731 O.3     1  UNL1       -0.4714
@<TRIPOS>BOND
     1    24    25    1
     2    25    18    1
     3    18    19   ar
     4    19    20   ar
     5    20    21   ar
     6    21    17    1
     7    17    16    1
     8    16    14    1
     9    14     1    1
    10     1     2   ar
    11     2     3   ar
    12     3     4   ar
    13     4     5   ar
    14     5     6    1
    15     5     7   ar
    16     7     8   ar
    17     8     9   ar
    18     9    10   ar
    19    10    11    2
    20    10    12   ar
    21    12    13    1
    22    21    22   ar
    23    22    23   ar
    24    23    18   ar
    25    12     1   ar
    26     9     3   ar
    27    14    15    1
@<TRIPOS>MOLECULE
*****
 25 27 0 0 0
SMALL
GASTEIGER

@<TRIPOS>ATOM
      1 C          63.9784   87.8587   14.8426 C.ar    1  UNL1        0.2002
      2 N          64.1874   86.7776   13.8240 N.ar    1  UNL1       -0.2150
      3 C          63.7528   85.3730   14.1212 C.ar    1  UNL1        0.0895
      4 C          63.9617   84.2919   13.1026 C.ar    1  UNL1        0.0307
      5 C          63.5272   82.8874   13.3999 C.ar    1  UNL1        0.0592
      6 CL         63.7361   81.8062   12.3813 Cl      1  UNL1       -0.0822
      7 C          62.8838   82.5639   14.7157 C.ar    1  UNL1        0.0116
      8 C          62.6749   83.6450   15.7343 C.ar    1  UNL1        0.0071
      9 C          63.1094   85.0496   15.4370 C.ar    1  UNL1        0.0740
     10 C          62.9005   86.1307   16.4556 C.ar    1  UNL1        0.2643
     11 O          62.2571   85.8073   17.7715 O.2     1  UNL1       -0.2668
     12 N          63.3350   87.5353   16.1584 N.ar    1  UNL1       -0.2669
     13 C          63.1261   88.6165   17.1770 C.3     1  UNL1        0.1363
     14 N          64.4130   89.2634   14.5454 N.pl3   1  UNL1       -0.3039
     15 H          65.3083   89.5696   14.8171 H       1  UNL1        0.1496
     16 C          63.4833   90.2014   13.8342 C.3     1  UNL1        0.0942
     17 C          63.5464   90.3313   12.3412 C.3     1  UNL1        0.0476
     18 C          60.5430   88.1856    9.7672 C.ar    1  UNL1        0.1387
     19 C          61.5899   87.4062   10.5065 C.ar    1  UNL1        0.0366
     20 C          62.5910   88.1215   11.3645 C.ar    1  UNL1       -0.0011
     21 C          62.5452   89.6161   11.4831 C.ar    1  UNL1       -0.0203
     22 C          61.4984   90.3954   10.7438 C.ar    1  UNL1       -0.0011
     23 C          60.4973   89.6802    9.8858 C.ar    1  UNL1        0.0366
     24 C          59.9820   86.3403    8.0264 C.3     1  UNL1        0.2525
     25 O          59.5418   87.4704    8.9091 O.3     1  UNL1       -0.4714
@<TRIPOS>BOND
     1    24    25    1
     2    25    18    1
     3    18    19   ar
     4    19    20   ar
     5    20    21   ar
     6    21    17    1
     7    17    16    1
     8    16    14    1
     9    14     1    1
    10     1     2   ar
    11     2     3   ar
    12     3     4   ar
    13     4     5   ar
    14     5     6    1
    15     5     7   ar
    16     7     8   ar
    17     8     9   ar
    18     9    10   ar
    19    10    11    2
    20    10    12   ar
    21    12    13    1
    22    21    22   ar
    23    22    23   ar
    24    23    18   ar
    25    12     1   ar
    26     9     3   ar
    27    14    15    1
@<TRIPOS>MOLECULE
*****
 25 27 0 0 0
SMALL
GASTEIGER

@<TRIPOS>ATOM
      1 C          63.4164   90.0617   12.4878 C.ar    1  UNL1        0.2002
      2 N          63.7450   90.9618   11.3338 N.ar    1  UNL1       -0.2150
      3 C          64.7186   92.0885   11.5151 C.ar    1  UNL1        0.0895
      4 C          65.0473   92.9886   10.3611 C.ar    1  UNL1        0.0307
      5 C          66.0209   94.1152   10.5424 C.ar    1  UNL1        0.0592
      6 CL         66.3496   95.0154    9.3884 Cl      1  UNL1       -0.0822
      7 C          66.6657   94.3417   11.8776 C.ar    1  UNL1        0.0116
      8 C          66.3371   93.4416   13.0316 C.ar    1  UNL1        0.0071
      9 C          65.3635   92.3150   12.8503 C.ar    1  UNL1        0.0740
     10 C          65.0348   91.4148   14.0043 C.ar    1  UNL1        0.2643
     11 O          65.6797   91.6412   15.3395 O.2     1  UNL1       -0.2668
     12 N          64.0612   90.2882   13.8230 N.ar    1  UNL1       -0.2669
     13 C          63.7325   89.3880   14.9770 C.3     1  UNL1        0.1363
     14 N          62.4428   88.9350   12.3066 N.pl3   1  UNL1       -0.3039
     15 H          62.4447   88.1770   12.9347 H       1  UNL1        0.1496
     16 C          61.4663   88.9633   11.1683 C.3     1  UNL1        0.0942
     17 C          61.7470   88.1809    9.9197 C.3     1  UNL1        0.0476
     18 C          63.2459   83.9476   10.2065 C.ar    1  UNL1        0.1387
     19 C          63.2881   84.6708    8.8930 C.ar    1  UNL1        0.0366
     20 C          62.7885   86.0819    8.7975 C.ar    1  UNL1       -0.0011
     21 C          62.2467   86.7697   10.0154 C.ar    1  UNL1       -0.0203
     22 C          62.2045   86.0466   11.3288 C.ar    1  UNL1       -0.0011
     23 C          62.7041   84.6355   11.4243 C.ar    1  UNL1        0.0366
     24 C          63.9818   81.9139   11.6462 C.3     1  UNL1        0.2525
     25 O          63.7455   82.5364   10.3021 O.3     1  UNL1       -0.4714
@<TRIPOS>BOND
     1    24    25    1
     2    25    18    1
     3    18    19   ar
     4    19    20   ar
     5    20    21   ar
     6    21    17    1
     7    17    16    1
     8    16    14    1
     9    14     1    1
    10     1     2   ar
    11     2     3   ar
    12     3     4   ar
    13     4     5   ar
    14     5     6    1
    15     5     7   ar
    16     7     8   ar
    17     8     9   ar
    18     9    10   ar
    19    10    11    2
    20    10    12   ar
    21    12    13    1
    22    21    22   ar
    23    22    23   ar
    24    23    18   ar
    25    12     1   ar
    26     9     3   ar
    27    14    15    1
@<TRIPOS>MOLECULE
*****
 25 27 0 0 0
SMALL
GASTEIGER

@<TRIPOS>ATOM
      1 C          63.8578   86.3055   14.2947 C.ar    1  UNL1        0.2002
      2 N          63.9169   85.5304   13.0119 N.ar    1  UNL1       -0.2150
      3 C          63.4703   84.0987   12.9794 C.ar    1  UNL1        0.0895
      4 C          63.5294   83.3236   11.6966 C.ar    1  UNL1        0.0307
      5 C          63.0829   81.8920   11.6642 C.ar    1  UNL1        0.0592
      6 CL         63.1419   81.1168   10.3813 Cl      1  UNL1       -0.0822
      7 C          62.5773   81.2355   12.9145 C.ar    1  UNL1        0.0116
      8 C          62.5183   82.0106   14.1974 C.ar    1  UNL1        0.0071
      9 C          62.9648   83.4422   14.2298 C.ar    1  UNL1        0.0740
     10 C          62.9058   84.2174   15.5127 C.ar    1  UNL1        0.2643
     11 O          62.4002   83.5609   16.7630 O.2     1  UNL1       -0.2668
     12 N          63.3523   85.6490   15.5451 N.ar    1  UNL1       -0.2669
     13 C          63.2932   86.4242   16.8279 C.3     1  UNL1        0.1363
     14 N          64.3044   87.7372   14.3272 N.pl3   1  UNL1       -0.3039
     15 H          64.9559   88.0344   15.0028 H       1  UNL1        0.1496
     16 C          63.7582   88.7159   13.3304 C.3     1  UNL1        0.0942
     17 C          63.6070   90.1609   13.7035 C.3     1  UNL1        0.0476
     18 C          66.2594   93.2634   11.8091 C.ar    1  UNL1        0.1387
     19 C          65.1614   92.6263   11.0100 C.ar    1  UNL1        0.0366
     20 C          64.2773   91.5922   11.6414 C.ar    1  UNL1       -0.0011
     21 C          64.4912   91.1951   13.0720 C.ar    1  UNL1       -0.0203
     22 C          65.5891   91.8321   13.8711 C.ar    1  UNL1       -0.0011
     23 C          66.4732   92.8663   13.2396 C.ar    1  UNL1        0.0366
     24 C          66.5387   95.5129   10.5395 C.3     1  UNL1        0.2525
     25 O          67.1436   94.2976   11.1776 O.3     1  UNL1       -0.4714
@<TRIPOS>BOND
     1    24    25    1
     2    25    18    1
     3    18    19   ar
     4    19    20   ar
     5    20    21   ar
     6    21    17    1
     7    17    16    1
     8    16    14    1
     9    14     1    1
    10     1     2   ar
    11     2     3   ar
    12     3     4   ar
    13     4     5   ar
    14     5     6    1
    15     5     7   ar
    16     7     8   ar
    17     8     9   ar
    18     9    10   ar
    19    10    11    2
    20    10    12   ar
    21    12    13    1
    22    21    22   ar
    23    22    23   ar
    24    23    18   ar
    25    12     1   ar
    26     9     3   ar
    27    14    15    1
