@<TRIPOS>MOLECULE
*****
 38 41 0 0 0
SMALL
GASTEIGER

@<TRIPOS>ATOM
      1 C          64.9031   92.1971   11.4367 C.3     1  UNL1        0.1695
      2 C          65.6225   92.5074   12.7158 C.3     1  UNL1        0.1271
      3 N          65.3058   92.0374   14.1046 N.am    1  UNL1       -0.2553
      4 C          66.2249   92.5288   15.1834 C.2     1  UNL1        0.2294
      5 O          65.9968   92.1178   16.6079 O.2     1  UNL1       -0.2745
      6 C          64.1915   91.1410   14.5574 C.ar    1  UNL1        0.0676
      7 C          64.2345   90.9194   16.0402 C.ar    1  UNL1        0.0162
      8 C          63.2048   90.0500   16.6988 C.ar    1  UNL1        0.0014
      9 C          62.1320   89.4023   15.8744 C.ar    1  UNL1        0.0014
     10 C          62.0890   89.6239   14.3916 C.ar    1  UNL1        0.0162
     11 C          63.1187   90.4933   13.7330 C.ar    1  UNL1        0.0679
     12 N          62.8953   90.5819   12.2524 N.am    1  UNL1       -0.2518
     13 C          63.6894   91.3401   11.2304 C.2     1  UNL1        0.2493
     14 O          63.2059   91.2264    9.8151 O.2     1  UNL1       -0.2727
     15 C          66.3807   94.0155   10.3142 C.2     1  UNL1        0.2371
     16 O          66.7190   94.5743   11.6647 O.2     1  UNL1       -0.2737
     17 N          65.4728   92.8270   10.2003 N.am    1  UNL1       -0.2959
     18 H          65.2509   92.4603    9.3140 H       1  UNL1        0.1499
     19 C          66.9504   94.6454    9.0779 C.3     1  UNL1        0.1316
     20 C          66.5196   96.0237    8.6716 C.3     1  UNL1        0.0270
     21 C          68.6266   92.6793    8.8046 C.3     1  UNL1        0.0862
     22 N          67.9509   93.8972    8.2477 N.3     1  UNL1       -0.2902
     23 H          67.4682   93.6037    7.3985 H       1  UNL1        0.1237
     24 C          67.3722   93.4311   14.8378 C.3     1  UNL1        0.0856
     25 C          68.5986   93.4494   15.7014 C.3     1  UNL1        0.0091
     26 C          69.2597   94.7532   16.0375 C.3     1  UNL1        0.0005
     27 C          69.1637   92.1639   16.2287 C.3     1  UNL1        0.0005
     28 C          61.7227   89.8102   11.7238 C.3     1  UNL1        0.1248
     29 C          61.9067   88.4006   11.2450 C.ar    1  UNL1       -0.0020
     30 C          62.7943   87.4602   12.0052 C.ar    1  UNL1       -0.0026
     31 C          62.9784   86.0506   11.5264 C.ar    1  UNL1       -0.0003
     32 C          62.2747   85.5814   10.2875 C.ar    1  UNL1       -0.0000
     33 C          61.3870   86.5218    9.5274 C.ar    1  UNL1       -0.0003
     34 C          60.6834   86.0526    8.2886 C.ar    1  UNL1       -0.0000
     35 C          59.7958   86.9930    7.5285 C.ar    1  UNL1       -0.0000
     36 C          59.6117   88.4027    8.0073 C.ar    1  UNL1       -0.0000
     37 C          60.3154   88.8718    9.2461 C.ar    1  UNL1       -0.0003
     38 C          61.2030   87.9314   10.0062 C.ar    1  UNL1       -0.0024
@<TRIPOS>BOND
     1    21    22    1
     2    22    19    1
     3    19    20    1
     4    19    15    1
     5    15    16    2
     6    15    17   am
     7     1    17    1
     8     1     2    1
     9     2     3    1
    10     3     4   am
    11     4     5    2
    12     4    24    1
    13    24    25    1
    14    25    26    1
    15    25    27    1
    16     3     6    1
    17     6     7   ar
    18     7     8   ar
    19     8     9   ar
    20     9    10   ar
    21    10    11   ar
    22    11    12    1
    23    12    28    1
    24    28    29    1
    25    29    30   ar
    26    30    31   ar
    27    31    32   ar
    28    32    33   ar
    29    33    34   ar
    30    34    35   ar
    31    35    36   ar
    32    36    37   ar
    33    37    38   ar
    34    12    13   am
    35    13    14    2
    36    13     1    1
    37    11     6   ar
    38    38    29   ar
    39    38    33   ar
    40    22    23    1
    41    17    18    1
@<TRIPOS>MOLECULE
*****
 38 41 0 0 0
SMALL
GASTEIGER

@<TRIPOS>ATOM
      1 C          62.1802   87.5034   10.4022 C.3     1  UNL1        0.1695
      2 C          62.5107   86.1159   10.8667 C.3     1  UNL1        0.1271
      3 N          63.1382   85.6873   12.1599 N.am    1  UNL1       -0.2553
      4 C          63.3404   84.2104   12.3272 C.2     1  UNL1        0.2294
      5 O          63.9604   83.6758   13.5842 O.2     1  UNL1       -0.2745
      6 C          63.5904   86.5402   13.3081 C.ar    1  UNL1        0.0676
      7 C          64.1671   85.7082   14.4150 C.ar    1  UNL1        0.0162
      8 C          64.6800   86.3686   15.6603 C.ar    1  UNL1        0.0014
      9 C          64.6163   87.8608   15.7987 C.ar    1  UNL1        0.0014
     10 C          64.0395   88.6927   14.6918 C.ar    1  UNL1        0.0162
     11 C          63.5266   88.0324   13.4465 C.ar    1  UNL1        0.0679
     12 N          62.9949   89.0402   12.4710 N.am    1  UNL1       -0.2518
     13 C          62.3957   88.8049   11.1162 C.2     1  UNL1        0.2493
     14 O          61.9536   90.0333   10.3777 O.2     1  UNL1       -0.2727
     15 C          60.0827   87.8808    8.9163 C.2     1  UNL1        0.2371
     16 O          59.2434   88.0600   10.1466 O.2     1  UNL1       -0.2737
     17 N          61.5511   87.6024    9.0441 N.am    1  UNL1       -0.2959
     18 H          62.1019   87.4848    8.2367 H       1  UNL1        0.1499
     19 C          59.4536   87.9799    7.5582 C.3     1  UNL1        0.1316
     20 C          59.1889   89.3256    6.9507 C.3     1  UNL1        0.0270
     21 C          59.8943   85.4819    6.9964 C.3     1  UNL1        0.0862
     22 N          59.0891   86.7333    6.8077 N.3     1  UNL1       -0.2902
     23 H          58.1280   86.5064    7.0629 H       1  UNL1        0.1237
     24 C          62.9226   83.2680   11.2375 C.3     1  UNL1        0.0856
     25 C          62.8054   81.7995   11.5200 C.3     1  UNL1        0.0091
     26 C          62.2352   81.3302   12.8256 C.3     1  UNL1        0.0005
     27 C          63.2583   80.8005   10.4968 C.3     1  UNL1        0.0005
     28 C          63.0727   90.4730   12.9082 C.3     1  UNL1        0.1248
     29 C          64.2290   91.3266   12.4785 C.ar    1  UNL1       -0.0020
     30 C          64.4436   91.6213   11.0235 C.ar    1  UNL1       -0.0026
     31 C          65.5998   92.4749   10.5938 C.ar    1  UNL1       -0.0003
     32 C          66.5414   93.0337   11.6191 C.ar    1  UNL1       -0.0000
     33 C          66.3267   92.7389   13.0741 C.ar    1  UNL1       -0.0003
     34 C          67.2683   93.2977   14.0994 C.ar    1  UNL1       -0.0000
     35 C          67.0536   93.0029   15.5544 C.ar    1  UNL1       -0.0000
     36 C          65.8973   92.1493   15.9841 C.ar    1  UNL1       -0.0000
     37 C          64.9558   91.5906   14.9588 C.ar    1  UNL1       -0.0003
     38 C          65.1705   91.8853   13.5039 C.ar    1  UNL1       -0.0024
@<TRIPOS>BOND
     1    21    22    1
     2    22    19    1
     3    19    20    1
     4    19    15    1
     5    15    16    2
     6    15    17   am
     7     1    17    1
     8     1     2    1
     9     2     3    1
    10     3     4   am
    11     4     5    2
    12     4    24    1
    13    24    25    1
    14    25    26    1
    15    25    27    1
    16     3     6    1
    17     6     7   ar
    18     7     8   ar
    19     8     9   ar
    20     9    10   ar
    21    10    11   ar
    22    11    12    1
    23    12    28    1
    24    28    29    1
    25    29    30   ar
    26    30    31   ar
    27    31    32   ar
    28    32    33   ar
    29    33    34   ar
    30    34    35   ar
    31    35    36   ar
    32    36    37   ar
    33    37    38   ar
    34    12    13   am
    35    13    14    2
    36    13     1    1
    37    11     6   ar
    38    38    29   ar
    39    38    33   ar
    40    22    23    1
    41    17    18    1
@<TRIPOS>MOLECULE
*****
 38 41 0 0 0
SMALL
GASTEIGER

@<TRIPOS>ATOM
      1 C          62.2606   87.6070   10.7444 C.3     1  UNL1        0.1695
      2 C          62.4291   86.1634   11.1154 C.3     1  UNL1        0.1271
      3 N          62.9389   85.5814   12.4005 N.am    1  UNL1       -0.2553
      4 C          62.9880   84.0835   12.4623 C.2     1  UNL1        0.2294
      5 O          63.4820   83.3998   13.7027 O.2     1  UNL1       -0.2745
      6 C          63.4060   86.2992   13.6320 C.ar    1  UNL1        0.0676
      7 C          63.8368   85.3357   14.6978 C.ar    1  UNL1        0.0162
      8 C          64.3404   85.8492   16.0141 C.ar    1  UNL1        0.0014
      9 C          64.4131   87.3264   16.2646 C.ar    1  UNL1        0.0014
     10 C          63.9823   88.2899   15.1988 C.ar    1  UNL1        0.0162
     11 C          63.4788   87.7764   13.8826 C.ar    1  UNL1        0.0679
     12 N          63.1024   88.9005   12.9634 N.am    1  UNL1       -0.2518
     13 C          62.5602   88.8252   11.5669 C.2     1  UNL1        0.2493
     14 O          62.2808   90.1420   10.9053 O.2     1  UNL1       -0.2727
     15 C          60.2568   88.1268    9.1746 C.2     1  UNL1        0.2371
     16 O          59.3317   88.1269   10.3555 O.2     1  UNL1       -0.2737
     17 N          61.7212   87.8668    9.3691 N.am    1  UNL1       -0.2959
     18 H          62.3283   87.8667    8.5941 H       1  UNL1        0.1499
     19 C          59.7173   88.3866    7.7993 C.3     1  UNL1        0.1316
     20 C          59.0613   87.2789    7.0294 C.3     1  UNL1        0.0270
     21 C          59.0933   90.0808    5.9311 C.3     1  UNL1        0.0862
     22 N          59.8339   89.7540    7.1940 N.3     1  UNL1       -0.2902
     23 H          59.5169   90.4172    7.9012 H       1  UNL1        0.1237
     24 C          62.5430   83.2692   11.2837 C.3     1  UNL1        0.0856
     25 C          63.4401   82.2039   10.7265 C.3     1  UNL1        0.0091
     26 C          63.0560   80.7593   10.8514 C.3     1  UNL1        0.0005
     27 C          64.7211   82.5833   10.0446 C.3     1  UNL1        0.0005
     28 C          63.2933   90.2828   13.5137 C.3     1  UNL1        0.1248
     29 C          64.6691   90.8755   13.5920 C.ar    1  UNL1       -0.0020
     30 C          65.5267   90.6236   14.7966 C.ar    1  UNL1       -0.0026
     31 C          66.9024   91.2163   14.8750 C.ar    1  UNL1       -0.0003
     32 C          67.4205   92.0608   13.7488 C.ar    1  UNL1       -0.0000
     33 C          66.5629   92.3126   12.5441 C.ar    1  UNL1       -0.0003
     34 C          67.0809   93.1572   11.4179 C.ar    1  UNL1       -0.0000
     35 C          66.2233   93.4089   10.2134 C.ar    1  UNL1       -0.0000
     36 C          64.8475   92.8163   10.1350 C.ar    1  UNL1       -0.0000
     37 C          64.3295   91.9718   11.2612 C.ar    1  UNL1       -0.0003
     38 C          65.1871   91.7200   12.4658 C.ar    1  UNL1       -0.0024
@<TRIPOS>BOND
     1    21    22    1
     2    22    19    1
     3    19    20    1
     4    19    15    1
     5    15    16    2
     6    15    17   am
     7     1    17    1
     8     1     2    1
     9     2     3    1
    10     3     4   am
    11     4     5    2
    12     4    24    1
    13    24    25    1
    14    25    26    1
    15    25    27    1
    16     3     6    1
    17     6     7   ar
    18     7     8   ar
    19     8     9   ar
    20     9    10   ar
    21    10    11   ar
    22    11    12    1
    23    12    28    1
    24    28    29    1
    25    29    30   ar
    26    30    31   ar
    27    31    32   ar
    28    32    33   ar
    29    33    34   ar
    30    34    35   ar
    31    35    36   ar
    32    36    37   ar
    33    37    38   ar
    34    12    13   am
    35    13    14    2
    36    13     1    1
    37    11     6   ar
    38    38    29   ar
    39    38    33   ar
    40    22    23    1
    41    17    18    1
@<TRIPOS>MOLECULE
*****
 38 41 0 0 0
SMALL
GASTEIGER

@<TRIPOS>ATOM
      1 C          62.5309   85.9777   12.7091 C.3     1  UNL1        0.1695
      2 C          61.7362   86.4505   11.5280 C.3     1  UNL1        0.1271
      3 N          61.7494   87.7990   10.8713 N.am    1  UNL1       -0.2553
      4 C          60.8299   87.9600    9.6971 C.2     1  UNL1        0.2294
      5 O          60.7662   89.2696    8.9683 O.2     1  UNL1       -0.2745
      6 C          62.5603   89.0078   11.2334 C.ar    1  UNL1        0.0676
      7 C          62.2702   90.1576   10.3149 C.ar    1  UNL1        0.0162
      8 C          62.9782   91.4663   10.5047 C.ar    1  UNL1        0.0014
      9 C          63.9764   91.6251   11.6131 C.ar    1  UNL1        0.0014
     10 C          64.2665   90.4753   12.5316 C.ar    1  UNL1        0.0162
     11 C          63.5585   89.1666   12.3417 C.ar    1  UNL1        0.0679
     12 N          63.9922   88.1558   13.3616 N.am    1  UNL1       -0.2518
     13 C          63.5349   86.7366   13.5252 C.2     1  UNL1        0.2493
     14 O          64.1649   85.9758   14.6540 O.2     1  UNL1       -0.2727
     15 C          62.8668   83.4298   12.3276 C.2     1  UNL1        0.2371
     16 O          63.6852   83.7209   11.1046 O.2     1  UNL1       -0.2737
     17 N          62.2896   84.5583   13.1298 N.am    1  UNL1       -0.2959
     18 H          61.7525   84.3672   13.9324 H       1  UNL1        0.1499
     19 C          62.6255   82.0104   12.7483 C.3     1  UNL1        0.1316
     20 C          63.0447   80.8815   11.8538 C.3     1  UNL1        0.0270
     21 C          60.7860   80.7945   14.1221 C.3     1  UNL1        0.0862
     22 N          61.9651   81.7198   14.0633 N.3     1  UNL1       -0.2902
     23 H          62.6815   81.3229   14.6712 H       1  UNL1        0.1237
     24 C          59.9741   86.8114    9.2516 C.3     1  UNL1        0.0856
     25 C          59.7922   86.5349    7.7885 C.3     1  UNL1        0.0091
     26 C          60.5345   85.4035    7.1413 C.3     1  UNL1        0.0005
     27 C          58.8682   87.3898    6.9728 C.3     1  UNL1        0.0005
     28 C          65.0190   88.6265   14.3486 C.3     1  UNL1        0.1248
     29 C          64.7844   89.8832   15.1333 C.ar    1  UNL1       -0.0020
     30 C          63.5323   90.0380   15.9446 C.ar    1  UNL1       -0.0026
     31 C          63.2976   91.2946   16.7294 C.ar    1  UNL1       -0.0003
     32 C          64.3151   92.3964   16.7028 C.ar    1  UNL1       -0.0000
     33 C          65.5672   92.2416   15.8915 C.ar    1  UNL1       -0.0003
     34 C          66.5847   93.3435   15.8650 C.ar    1  UNL1       -0.0000
     35 C          67.8368   93.1886   15.0537 C.ar    1  UNL1       -0.0000
     36 C          68.0715   91.9320   14.2689 C.ar    1  UNL1       -0.0000
     37 C          67.0540   90.8302   14.2955 C.ar    1  UNL1       -0.0003
     38 C          65.8019   90.9850   15.1067 C.ar    1  UNL1       -0.0024
@<TRIPOS>BOND
     1    21    22    1
     2    22    19    1
     3    19    20    1
     4    19    15    1
     5    15    16    2
     6    15    17   am
     7     1    17    1
     8     1     2    1
     9     2     3    1
    10     3     4   am
    11     4     5    2
    12     4    24    1
    13    24    25    1
    14    25    26    1
    15    25    27    1
    16     3     6    1
    17     6     7   ar
    18     7     8   ar
    19     8     9   ar
    20     9    10   ar
    21    10    11   ar
    22    11    12    1
    23    12    28    1
    24    28    29    1
    25    29    30   ar
    26    30    31   ar
    27    31    32   ar
    28    32    33   ar
    29    33    34   ar
    30    34    35   ar
    31    35    36   ar
    32    36    37   ar
    33    37    38   ar
    34    12    13   am
    35    13    14    2
    36    13     1    1
    37    11     6   ar
    38    38    29   ar
    39    38    33   ar
    40    22    23    1
    41    17    18    1
@<TRIPOS>MOLECULE
*****
 38 41 0 0 0
SMALL
GASTEIGER

@<TRIPOS>ATOM
      1 C          62.1175   88.3851   10.0795 C.3     1  UNL1        0.1695
      2 C          62.8606   89.5978   10.5563 C.3     1  UNL1        0.1271
      3 N          63.6011   89.7938   11.8460 N.am    1  UNL1       -0.2553
      4 C          64.2466   91.1354   12.0284 C.2     1  UNL1        0.2294
      5 O          65.0120   91.4352   13.2832 O.2     1  UNL1       -0.2745
      6 C          63.7816   88.8255   12.9773 C.ar    1  UNL1        0.0676
      7 C          64.5953   89.4239   14.0863 C.ar    1  UNL1        0.0162
      8 C          64.8934   88.6189   15.3163 C.ar    1  UNL1        0.0014
      9 C          64.3779   87.2155   15.4374 C.ar    1  UNL1        0.0014
     10 C          63.5642   86.6171   14.3285 C.ar    1  UNL1        0.0162
     11 C          63.2660   87.4221   13.0985 C.ar    1  UNL1        0.0679
     12 N          62.4427   86.6404   12.1181 N.am    1  UNL1       -0.2518
     13 C          61.9315   87.0689   10.7746 C.2     1  UNL1        0.2493
     14 O          61.1282   86.0461   10.0273 O.2     1  UNL1       -0.2727
     15 C          60.1764   89.2388    8.5785 C.2     1  UNL1        0.2371
     16 O          59.5191   89.8540    9.7783 O.2     1  UNL1       -0.2737
     17 N          61.4756   88.5044    8.7291 N.am    1  UNL1       -0.2959
     18 H          61.9070   88.1006    7.9416 H       1  UNL1        0.1499
     19 C          59.5345   89.3581    7.2280 C.3     1  UNL1        0.1316
     20 C          58.5083   88.3537    6.7941 C.3     1  UNL1        0.0270
     21 C          58.9206   91.0262    5.3332 C.3     1  UNL1        0.0862
     22 N          59.9187   90.4816    6.3116 N.3     1  UNL1       -0.2902
     23 H          60.2048   91.2606    6.9046 H       1  UNL1        0.1237
     24 C          64.1267   92.1775   10.9561 C.3     1  UNL1        0.0856
     25 C          65.3227   92.9953   10.5678 C.3     1  UNL1        0.0091
     26 C          65.1994   94.4833   10.4250 C.3     1  UNL1        0.0005
     27 C          66.6420   92.3249   10.3225 C.3     1  UNL1        0.0005
     28 C          62.0829   85.2456   12.5367 C.3     1  UNL1        0.1248
     29 C          62.6970   84.0702   11.8357 C.ar    1  UNL1       -0.0020
     30 C          63.4979   84.2778   10.5846 C.ar    1  UNL1       -0.0026
     31 C          64.1120   83.1024    9.8835 C.ar    1  UNL1       -0.0003
     32 C          63.9251   81.7195   10.4337 C.ar    1  UNL1       -0.0000
     33 C          63.1241   81.5119   11.6849 C.ar    1  UNL1       -0.0003
     34 C          62.9371   80.1290   12.2350 C.ar    1  UNL1       -0.0000
     35 C          62.1362   79.9216   13.4861 C.ar    1  UNL1       -0.0000
     36 C          61.5221   81.0970   14.1872 C.ar    1  UNL1       -0.0000
     37 C          61.7091   82.4798   13.6370 C.ar    1  UNL1       -0.0003
     38 C          62.5100   82.6873   12.3859 C.ar    1  UNL1       -0.0024
@<TRIPOS>BOND
     1    21    22    1
     2    22    19    1
     3    19    20    1
     4    19    15    1
     5    15    16    2
     6    15    17   am
     7     1    17    1
     8     1     2    1
     9     2     3    1
    10     3     4   am
    11     4     5    2
    12     4    24    1
    13    24    25    1
    14    25    26    1
    15    25    27    1
    16     3     6    1
    17     6     7   ar
    18     7     8   ar
    19     8     9   ar
    20     9    10   ar
    21    10    11   ar
    22    11    12    1
    23    12    28    1
    24    28    29    1
    25    29    30   ar
    26    30    31   ar
    27    31    32   ar
    28    32    33   ar
    29    33    34   ar
    30    34    35   ar
    31    35    36   ar
    32    36    37   ar
    33    37    38   ar
    34    12    13   am
    35    13    14    2
    36    13     1    1
    37    11     6   ar
    38    38    29   ar
    39    38    33   ar
    40    22    23    1
    41    17    18    1
@<TRIPOS>MOLECULE
*****
 38 41 0 0 0
SMALL
GASTEIGER

@<TRIPOS>ATOM
      1 C          62.7839   88.1378   12.8147 C.3     1  UNL1        0.1695
      2 C          61.8848   88.8843   11.8742 C.3     1  UNL1        0.1271
      3 N          61.3342   88.4357   10.5530 N.am    1  UNL1       -0.2553
      4 C          60.4548   89.4235    9.8452 C.2     1  UNL1        0.2294
      5 O          59.8525   89.0744    8.5165 O.2     1  UNL1       -0.2745
      6 C          61.5467   87.1300    9.8458 C.ar    1  UNL1        0.0676
      7 C          60.8110   87.0883    8.5393 C.ar    1  UNL1        0.0162
      8 C          60.8910   85.8669    7.6723 C.ar    1  UNL1        0.0014
      9 C          61.7066   84.6872    8.1118 C.ar    1  UNL1        0.0014
     10 C          62.4423   84.7290    9.4183 C.ar    1  UNL1        0.0162
     11 C          62.3624   85.9504   10.2853 C.ar    1  UNL1        0.0679
     12 N          63.1669   85.7851   11.5405 N.am    1  UNL1       -0.2518
     13 C          63.3545   86.7585   12.6662 C.2     1  UNL1        0.2493
     14 O          64.2282   86.2910   13.7922 O.2     1  UNL1       -0.2727
     15 C          63.8812   90.1810   13.9857 C.2     1  UNL1        0.2371
     16 O          64.2214   90.7657   12.6468 O.2     1  UNL1       -0.2737
     17 N          63.1625   88.8671   14.0696 N.am    1  UNL1       -0.2959
     18 H          62.9392   88.4834   14.9483 H       1  UNL1        0.1499
     19 C          64.2598   90.9103   15.2406 C.3     1  UNL1        0.1316
     20 C          63.6005   90.5575   16.5410 C.3     1  UNL1        0.0270
     21 C          66.7181   91.6552   14.8513 C.3     1  UNL1        0.0862
     22 N          65.2975   91.9924   15.1951 N.3     1  UNL1       -0.2902
     23 H          64.9817   92.6745   14.5057 H       1  UNL1        0.1237
     24 C          60.1775   90.7605   10.4662 C.3     1  UNL1        0.0856
     25 C          59.1107   90.8950   11.5121 C.3     1  UNL1        0.0091
     26 C          58.7941   89.7385   12.4134 C.3     1  UNL1        0.0005
     27 C          58.3605   92.1859   11.6567 C.3     1  UNL1        0.0005
     28 C          63.8778   84.4727   11.6897 C.3     1  UNL1        0.1248
     29 C          63.2782   83.3864   12.5326 C.ar    1  UNL1       -0.0020
     30 C          62.8525   83.6787   13.9409 C.ar    1  UNL1       -0.0026
     31 C          62.2529   82.5925   14.7839 C.ar    1  UNL1       -0.0003
     32 C          62.0790   81.2140   14.2186 C.ar    1  UNL1       -0.0000
     33 C          62.5048   80.9218   12.8102 C.ar    1  UNL1       -0.0003
     34 C          62.3309   79.5433   12.2449 C.ar    1  UNL1       -0.0000
     35 C          62.7567   79.2511   10.8366 C.ar    1  UNL1       -0.0000
     36 C          63.3563   80.3374    9.9936 C.ar    1  UNL1       -0.0000
     37 C          63.5301   81.7158   10.5590 C.ar    1  UNL1       -0.0003
     38 C          63.1044   82.0080   11.9672 C.ar    1  UNL1       -0.0024
@<TRIPOS>BOND
     1    21    22    1
     2    22    19    1
     3    19    20    1
     4    19    15    1
     5    15    16    2
     6    15    17   am
     7     1    17    1
     8     1     2    1
     9     2     3    1
    10     3     4   am
    11     4     5    2
    12     4    24    1
    13    24    25    1
    14    25    26    1
    15    25    27    1
    16     3     6    1
    17     6     7   ar
    18     7     8   ar
    19     8     9   ar
    20     9    10   ar
    21    10    11   ar
    22    11    12    1
    23    12    28    1
    24    28    29    1
    25    29    30   ar
    26    30    31   ar
    27    31    32   ar
    28    32    33   ar
    29    33    34   ar
    30    34    35   ar
    31    35    36   ar
    32    36    37   ar
    33    37    38   ar
    34    12    13   am
    35    13    14    2
    36    13     1    1
    37    11     6   ar
    38    38    29   ar
    39    38    33   ar
    40    22    23    1
    41    17    18    1
