@<TRIPOS>MOLECULE
*****
 39 42 0 0 0
SMALL
GASTEIGER

@<TRIPOS>ATOM
      1 C          62.5589   87.3024   11.7495 C.ar    1  UNL1        0.2144
      2 C          61.7799   86.4677   10.7767 C.ar    1  UNL1        0.1822
      3 O          61.8026   84.9719   10.8856 O.2     1  UNL1       -0.4500
      4 C          62.6043   84.3107   11.9674 C.ar    1  UNL1        0.1545
      5 C          62.6269   82.8148   12.0763 C.ar    1  UNL1        0.0744
      6 C          63.4286   82.1537   13.1580 C.ar    1  UNL1        0.1397
      7 O          63.4513   80.6578   13.2669 O.3     1  UNL1       -0.5053
      8 C          64.2076   82.9884   14.1308 C.ar    1  UNL1        0.0735
      9 C          64.1849   84.4843   14.0219 C.ar    1  UNL1        0.1428
     10 O          64.9639   85.3190   14.9948 O.3     1  UNL1       -0.5052
     11 C          63.3832   85.1454   12.9402 C.ar    1  UNL1        0.1104
     12 C          63.3605   86.6413   12.8312 C.ar    1  UNL1        0.2382
     13 O          64.1395   87.4760   13.8041 O.2     1  UNL1       -0.2830
     14 H          62.9647   80.1364   12.6593 H       1  UNL1        0.2922
     15 H          65.4647   84.9060   15.6705 H       1  UNL1        0.2922
     16 C          60.9782   87.1289    9.6949 C.ar    1  UNL1        0.0379
     17 C          60.2515   86.2936    8.6829 C.ar    1  UNL1        0.0062
     18 C          59.4499   86.9548    7.6012 C.ar    1  UNL1        0.0367
     19 C          59.3749   88.4513    7.5315 C.ar    1  UNL1        0.1337
     20 O          58.5732   89.1125    6.4497 O.3     1  UNL1       -0.5055
     21 C          60.1016   89.2866    8.5434 C.ar    1  UNL1        0.0367
     22 C          60.9033   88.6254    9.6251 C.ar    1  UNL1        0.0062
     23 H          58.1193   88.5907    5.8175 H       1  UNL1        0.2922
     24 O          62.5362   88.7983   11.6406 O.3     1  UNL1       -0.4441
     25 C          64.5611   91.6663   13.4910 C.3     1  UNL1        0.2306
     26 C          64.2951   91.3205   14.9261 C.3     1  UNL1        0.1804
     27 O          64.8814   92.1612   16.0213 O.3     1  UNL1       -0.3785
     28 C          63.4428   90.1338   15.2661 C.3     1  UNL1        0.1494
     29 C          63.1768   89.7880   16.7012 C.3     1  UNL1        0.0349
     30 O          62.8565   89.2931   14.1709 O.3     1  UNL1       -0.3186
     31 C          63.1225   89.6391   12.7358 C.3     1  UNL1        0.3194
     32 C          63.9748   90.8256   12.3958 C.3     1  UNL1        0.2240
     33 O          64.2408   91.1715   10.9607 O.3     1  UNL1       -0.3758
     34 H          64.6142   91.8030   16.8822 H       1  UNL1        0.2106
     35 H          63.7917   90.5324   10.3855 H       1  UNL1        0.2107
     36 O          65.4134   92.8529   13.1511 O.3     1  UNL1       -0.4468
     37 C          67.7887   91.9181   13.6348 C.3     1  UNL1        0.1212
     38 C          66.8414   92.6564   12.7362 C.2     1  UNL1        0.3176
     39 O          67.3221   93.1983   11.4227 O.2     1  UNL1       -0.2501
@<TRIPOS>BOND
     1    37    38    1
     2    38    39    2
     3    38    36    1
     4    25    36    1
     5    25    26    1
     6    26    27    1
     7    26    28    1
     8    28    29    1
     9    28    30    1
    10    30    31    1
    11    31    24    1
    12    24     1    1
    13     1     2   ar
    14     2    16    1
    15    16    17   ar
    16    17    18   ar
    17    18    19   ar
    18    19    20    1
    19    19    21   ar
    20    21    22   ar
    21     2     3   ar
    22     3     4   ar
    23     4     5   ar
    24     5     6   ar
    25     6     7    1
    26     6     8   ar
    27     8     9   ar
    28     9    10    1
    29     9    11   ar
    30    11    12   ar
    31    12    13    2
    32    31    32    1
    33    32    33    1
    34    32    25    1
    35    12     1   ar
    36    22    16   ar
    37    11     4   ar
    38    27    34    1
    39    20    23    1
    40     7    14    1
    41    10    15    1
    42    33    35    1
@<TRIPOS>MOLECULE
*****
 39 42 0 0 0
SMALL
GASTEIGER

@<TRIPOS>ATOM
      1 C          62.4214   87.8966   11.8233 C.ar    1  UNL1        0.2144
      2 C          61.8380   86.9954   10.7757 C.ar    1  UNL1        0.1822
      3 O          62.0727   85.5155   10.8441 O.2     1  UNL1       -0.4500
      4 C          62.8908   84.9367   11.9601 C.ar    1  UNL1        0.1545
      5 C          63.1255   83.4567   12.0285 C.ar    1  UNL1        0.0744
      6 C          63.9437   82.8780   13.1446 C.ar    1  UNL1        0.1397
      7 O          64.1784   81.3980   13.2130 O.3     1  UNL1       -0.5053
      8 C          64.5271   83.7791   14.1922 C.ar    1  UNL1        0.0735
      9 C          64.2924   85.2590   14.1238 C.ar    1  UNL1        0.1428
     10 O          64.8758   86.1601   15.1715 O.3     1  UNL1       -0.5052
     11 C          63.4743   85.8378   13.0078 C.ar    1  UNL1        0.1104
     12 C          63.2395   87.3178   12.9394 C.ar    1  UNL1        0.2382
     13 O          63.8230   88.2189   13.9870 O.2     1  UNL1       -0.2830
     14 H          63.8139   80.8350   12.5586 H       1  UNL1        0.2922
     15 H          65.3869   85.7985   15.8687 H       1  UNL1        0.2922
     16 C          61.0198   87.5743    9.6596 C.ar    1  UNL1        0.0379
     17 C          60.2880   86.6657    8.7168 C.ar    1  UNL1        0.0062
     18 C          59.4699   87.2446    7.6008 C.ar    1  UNL1        0.0367
     19 C          59.3836   88.7321    7.4275 C.ar    1  UNL1        0.1337
     20 O          58.5654   89.3109    6.3114 O.3     1  UNL1       -0.5055
     21 C          60.1154   89.6407    8.3703 C.ar    1  UNL1        0.0367
     22 C          60.9335   89.0618    9.4863 C.ar    1  UNL1        0.0062
     23 H          58.1082   88.7434    5.7225 H       1  UNL1        0.2922
     24 O          62.1867   89.3766   11.7549 O.3     1  UNL1       -0.4441
     25 C          64.9231   92.2038   11.2370 C.3     1  UNL1        0.2306
     26 C          65.5627   92.2312   12.5936 C.3     1  UNL1        0.1804
     27 O          66.6880   93.1828   12.8731 O.3     1  UNL1       -0.3785
     28 C          65.0769   91.3070   13.6706 C.3     1  UNL1        0.1494
     29 C          65.7165   91.3344   15.0271 C.3     1  UNL1        0.0349
     30 O          63.9516   90.3554   13.3910 O.3     1  UNL1       -0.3186
     31 C          63.3120   90.3281   12.0344 C.3     1  UNL1        0.3194
     32 C          63.7978   91.2523   10.9575 C.3     1  UNL1        0.2240
     33 O          63.1582   91.2249    9.6010 O.3     1  UNL1       -0.3758
     34 H          66.9847   93.0722   13.7900 H       1  UNL1        0.2106
     35 H          62.4533   90.5587    9.5893 H       1  UNL1        0.2107
     36 O          65.4089   93.1280   10.1601 O.3     1  UNL1       -0.4468
     37 C          67.8181   92.3734    9.5463 C.3     1  UNL1        0.1212
     38 C          66.8728   93.4305   10.0354 C.2     1  UNL1        0.3176
     39 O          67.3914   94.7900   10.3997 O.2     1  UNL1       -0.2501
@<TRIPOS>BOND
     1    37    38    1
     2    38    39    2
     3    38    36    1
     4    25    36    1
     5    25    26    1
     6    26    27    1
     7    26    28    1
     8    28    29    1
     9    28    30    1
    10    30    31    1
    11    31    24    1
    12    24     1    1
    13     1     2   ar
    14     2    16    1
    15    16    17   ar
    16    17    18   ar
    17    18    19   ar
    18    19    20    1
    19    19    21   ar
    20    21    22   ar
    21     2     3   ar
    22     3     4   ar
    23     4     5   ar
    24     5     6   ar
    25     6     7    1
    26     6     8   ar
    27     8     9   ar
    28     9    10    1
    29     9    11   ar
    30    11    12   ar
    31    12    13    2
    32    31    32    1
    33    32    33    1
    34    32    25    1
    35    12     1   ar
    36    22    16   ar
    37    11     4   ar
    38    27    34    1
    39    20    23    1
    40     7    14    1
    41    10    15    1
    42    33    35    1
@<TRIPOS>MOLECULE
*****
 39 42 0 0 0
SMALL
GASTEIGER

@<TRIPOS>ATOM
      1 C          62.6601   88.5283   12.0949 C.ar    1  UNL1        0.2144
      2 C          62.3709   89.0659   10.7247 C.ar    1  UNL1        0.1822
      3 O          63.0102   90.3444   10.2703 O.2     1  UNL1       -0.4500
      4 C          63.9388   91.0854   11.1861 C.ar    1  UNL1        0.1545
      5 C          64.5782   92.3640   10.7317 C.ar    1  UNL1        0.0744
      6 C          65.5067   93.1050   11.6475 C.ar    1  UNL1        0.1397
      7 O          66.1461   94.3836   11.1932 O.3     1  UNL1       -0.5053
      8 C          65.7960   92.5674   13.0177 C.ar    1  UNL1        0.0735
      9 C          65.1566   91.2888   13.4721 C.ar    1  UNL1        0.1428
     10 O          65.4459   90.7512   14.8422 O.3     1  UNL1       -0.5052
     11 C          64.2281   90.5479   12.5563 C.ar    1  UNL1        0.1104
     12 C          63.5887   89.2692   13.0106 C.ar    1  UNL1        0.2382
     13 O          63.8779   88.7316   14.3808 O.2     1  UNL1       -0.2830
     14 H          65.9654   94.7194   10.3373 H       1  UNL1        0.2922
     15 H          66.0259   91.2141   15.4143 H       1  UNL1        0.2922
     16 C          61.4423   88.3248    9.8089 C.ar    1  UNL1        0.0379
     17 C          59.9933   88.7065    9.7408 C.ar    1  UNL1        0.0062
     18 C          59.0647   87.9655    8.8251 C.ar    1  UNL1        0.0367
     19 C          59.5852   86.8428    7.9774 C.ar    1  UNL1        0.1337
     20 O          58.6566   86.1017    7.0616 O.3     1  UNL1       -0.5055
     21 C          61.0342   86.4611    8.0454 C.ar    1  UNL1        0.0367
     22 C          61.9627   87.2021    8.9612 C.ar    1  UNL1        0.0062
     23 H          57.7514   86.3402    7.0191 H       1  UNL1        0.2922
     24 O          62.0207   87.2496   12.5492 O.3     1  UNL1       -0.4441
     25 C          63.6231   83.6373   12.9144 C.3     1  UNL1        0.2306
     26 C          63.8852   83.2968   11.4773 C.3     1  UNL1        0.1804
     27 O          64.5067   81.9792   11.1200 O.3     1  UNL1       -0.3785
     28 C          63.5259   84.2740   10.3974 C.3     1  UNL1        0.1494
     29 C          63.7881   83.9335    8.9603 C.3     1  UNL1        0.0349
     30 O          62.9044   85.5916   10.7547 O.3     1  UNL1       -0.3186
     31 C          62.6422   85.9320   12.1919 C.3     1  UNL1        0.3194
     32 C          63.0015   84.9549   13.2717 C.3     1  UNL1        0.2240
     33 O          62.7394   85.2953   14.7088 O.3     1  UNL1       -0.3758
     34 H          64.6065   81.9193   10.1570 H       1  UNL1        0.2106
     35 H          62.3376   86.1765   14.7643 H       1  UNL1        0.2107
     36 O          63.9824   82.6601   13.9942 O.3     1  UNL1       -0.4468
     37 C          61.6505   81.5340   14.2044 C.3     1  UNL1        0.1212
     38 C          63.1470   81.4318   14.2025 C.2     1  UNL1        0.3176
     39 O          63.8082   80.1013   14.4088 O.2     1  UNL1       -0.2501
@<TRIPOS>BOND
     1    37    38    1
     2    38    39    2
     3    38    36    1
     4    25    36    1
     5    25    26    1
     6    26    27    1
     7    26    28    1
     8    28    29    1
     9    28    30    1
    10    30    31    1
    11    31    24    1
    12    24     1    1
    13     1     2   ar
    14     2    16    1
    15    16    17   ar
    16    17    18   ar
    17    18    19   ar
    18    19    20    1
    19    19    21   ar
    20    21    22   ar
    21     2     3   ar
    22     3     4   ar
    23     4     5   ar
    24     5     6   ar
    25     6     7    1
    26     6     8   ar
    27     8     9   ar
    28     9    10    1
    29     9    11   ar
    30    11    12   ar
    31    12    13    2
    32    31    32    1
    33    32    33    1
    34    32    25    1
    35    12     1   ar
    36    22    16   ar
    37    11     4   ar
    38    27    34    1
    39    20    23    1
    40     7    14    1
    41    10    15    1
    42    33    35    1
@<TRIPOS>MOLECULE
*****
 39 42 0 0 0
SMALL
GASTEIGER

@<TRIPOS>ATOM
      1 C          62.8964   89.3299   12.1673 C.ar    1  UNL1        0.2144
      2 C          62.7422   89.7460   10.7345 C.ar    1  UNL1        0.1822
      3 O          63.5036   90.9274   10.2105 O.2     1  UNL1       -0.4500
      4 C          64.4193   91.6927   11.1193 C.ar    1  UNL1        0.1545
      5 C          65.1807   92.8740   10.5953 C.ar    1  UNL1        0.0744
      6 C          66.0963   93.6392   11.5042 C.ar    1  UNL1        0.1397
      7 O          66.8578   94.8206   10.9802 O.3     1  UNL1       -0.5053
      8 C          66.2504   93.2231   12.9370 C.ar    1  UNL1        0.0735
      9 C          65.4890   92.0418   13.4611 C.ar    1  UNL1        0.1428
     10 O          65.6432   91.6257   14.8939 O.3     1  UNL1       -0.5052
     11 C          64.5734   91.2766   12.5522 C.ar    1  UNL1        0.1104
     12 C          63.8120   90.0952   13.0762 C.ar    1  UNL1        0.2382
     13 O          63.9661   89.6791   14.5091 O.2     1  UNL1       -0.2830
     14 H          66.7615   95.0806   10.0851 H       1  UNL1        0.2922
     15 H          66.2151   92.1037   15.4616 H       1  UNL1        0.2922
     16 C          61.8265   88.9807    9.8256 C.ar    1  UNL1        0.0379
     17 C          60.4823   89.5426    9.4689 C.ar    1  UNL1        0.0062
     18 C          59.5668   88.7773    8.5600 C.ar    1  UNL1        0.0367
     19 C          59.9954   87.4501    8.0080 C.ar    1  UNL1        0.1337
     20 O          59.0798   86.6848    7.0991 O.3     1  UNL1       -0.5055
     21 C          61.3396   86.8882    8.3647 C.ar    1  UNL1        0.0367
     22 C          62.2552   87.6535    9.2736 C.ar    1  UNL1        0.0062
     23 H          58.2401   87.0358    6.8763 H       1  UNL1        0.2922
     24 O          62.1349   88.1485   12.6913 O.3     1  UNL1       -0.4441
     25 C          63.0703   84.3034   12.3913 C.3     1  UNL1        0.2306
     26 C          64.2363   84.2211   13.3312 C.3     1  UNL1        0.1804
     27 O          64.9368   82.9120   13.5445 O.3     1  UNL1       -0.3785
     28 C          64.7019   85.4480   14.0580 C.3     1  UNL1        0.1494
     29 C          65.8679   85.3657   14.9979 C.3     1  UNL1        0.0349
     30 O          64.0014   86.7571   13.8447 O.3     1  UNL1       -0.3186
     31 C          62.8354   86.8394   12.9046 C.3     1  UNL1        0.3194
     32 C          62.3698   85.6125   12.1780 C.3     1  UNL1        0.2240
     33 O          61.2038   85.6948   11.2380 O.3     1  UNL1       -0.3758
     34 H          65.6621   83.0327   14.1772 H       1  UNL1        0.2106
     35 H          60.8698   86.6052   11.2161 H       1  UNL1        0.2107
     36 O          62.6047   83.0766   11.6646 O.3     1  UNL1       -0.4468
     37 C          63.2240   80.8946   10.3974 C.3     1  UNL1        0.1212
     38 C          63.5688   82.2898   10.8270 C.2     1  UNL1        0.3176
     39 O          64.8778   82.8983   10.4190 O.2     1  UNL1       -0.2501
@<TRIPOS>BOND
     1    37    38    1
     2    38    39    2
     3    38    36    1
     4    25    36    1
     5    25    26    1
     6    26    27    1
     7    26    28    1
     8    28    29    1
     9    28    30    1
    10    30    31    1
    11    31    24    1
    12    24     1    1
    13     1     2   ar
    14     2    16    1
    15    16    17   ar
    16    17    18   ar
    17    18    19   ar
    18    19    20    1
    19    19    21   ar
    20    21    22   ar
    21     2     3   ar
    22     3     4   ar
    23     4     5   ar
    24     5     6   ar
    25     6     7    1
    26     6     8   ar
    27     8     9   ar
    28     9    10    1
    29     9    11   ar
    30    11    12   ar
    31    12    13    2
    32    31    32    1
    33    32    33    1
    34    32    25    1
    35    12     1   ar
    36    22    16   ar
    37    11     4   ar
    38    27    34    1
    39    20    23    1
    40     7    14    1
    41    10    15    1
    42    33    35    1
@<TRIPOS>MOLECULE
*****
 39 42 0 0 0
SMALL
GASTEIGER

@<TRIPOS>ATOM
      1 C          62.3916   87.8143   11.8916 C.ar    1  UNL1        0.2144
      2 C          61.9084   86.9507   10.7644 C.ar    1  UNL1        0.1822
      3 O          62.2544   85.4914   10.7361 O.2     1  UNL1       -0.4500
      4 C          63.0835   84.8957   11.8351 C.ar    1  UNL1        0.1545
      5 C          63.4294   83.4364   11.8068 C.ar    1  UNL1        0.0744
      6 C          64.2585   82.8408   12.9058 C.ar    1  UNL1        0.1397
      7 O          64.6045   81.3815   12.8776 O.3     1  UNL1       -0.5053
      8 C          64.7416   83.7044   14.0331 C.ar    1  UNL1        0.0735
      9 C          64.3957   85.1637   14.0614 C.ar    1  UNL1        0.1428
     10 O          64.8788   86.0273   15.1886 O.3     1  UNL1       -0.5052
     11 C          63.5666   85.7593   12.9624 C.ar    1  UNL1        0.1104
     12 C          63.2206   87.2187   12.9906 C.ar    1  UNL1        0.2382
     13 O          63.7038   88.0823   14.1179 O.2     1  UNL1       -0.2830
     14 H          64.3027   80.8420   12.1734 H       1  UNL1        0.2922
     15 H          65.3967   85.6552   15.8751 H       1  UNL1        0.2922
     16 C          61.0793   87.5464    9.6653 C.ar    1  UNL1        0.0379
     17 C          61.0222   89.0351    9.4917 C.ar    1  UNL1        0.0062
     18 C          60.1931   89.6308    8.3927 C.ar    1  UNL1        0.0367
     19 C          59.4212   88.7376    7.4674 C.ar    1  UNL1        0.1337
     20 O          58.5921   89.3333    6.3683 O.3     1  UNL1       -0.5055
     21 C          59.4783   87.2488    7.6410 C.ar    1  UNL1        0.0367
     22 C          60.3074   86.6532    8.7399 C.ar    1  UNL1        0.0062
     23 H          58.5564   90.2633    6.2599 H       1  UNL1        0.2922
     24 O          62.0456   89.2736   11.9198 O.3     1  UNL1       -0.4441
     25 C          64.5344   91.7751   13.7360 C.3     1  UNL1        0.2306
     26 C          65.2763   92.3398   12.5610 C.3     1  UNL1        0.1804
     27 O          66.3532   93.3619   12.7748 O.3     1  UNL1       -0.3785
     28 C          64.9413   91.8825   11.1722 C.3     1  UNL1        0.1494
     29 C          65.6831   92.4473    9.9972 C.3     1  UNL1        0.0349
     30 O          63.8644   90.8605   10.9585 O.3     1  UNL1       -0.3186
     31 C          63.1225   90.2957   12.1336 C.3     1  UNL1        0.3194
     32 C          63.4575   90.7530   13.5223 C.3     1  UNL1        0.2240
     33 O          62.7157   90.1882   14.6973 O.3     1  UNL1       -0.3758
     34 H          66.7285   93.6200   11.9184 H       1  UNL1        0.2106
     35 H          62.0588   89.5458   14.3865 H       1  UNL1        0.2107
     36 O          64.8694   92.2324   15.1247 O.3     1  UNL1       -0.4468
     37 C          67.2297   91.1523   15.0108 C.3     1  UNL1        0.1212
     38 C          66.2801   92.1373   15.6258 C.2     1  UNL1        0.3176
     39 O          66.7411   93.0272   16.7418 O.2     1  UNL1       -0.2501
@<TRIPOS>BOND
     1    37    38    1
     2    38    39    2
     3    38    36    1
     4    25    36    1
     5    25    26    1
     6    26    27    1
     7    26    28    1
     8    28    29    1
     9    28    30    1
    10    30    31    1
    11    31    24    1
    12    24     1    1
    13     1     2   ar
    14     2    16    1
    15    16    17   ar
    16    17    18   ar
    17    18    19   ar
    18    19    20    1
    19    19    21   ar
    20    21    22   ar
    21     2     3   ar
    22     3     4   ar
    23     4     5   ar
    24     5     6   ar
    25     6     7    1
    26     6     8   ar
    27     8     9   ar
    28     9    10    1
    29     9    11   ar
    30    11    12   ar
    31    12    13    2
    32    31    32    1
    33    32    33    1
    34    32    25    1
    35    12     1   ar
    36    22    16   ar
    37    11     4   ar
    38    27    34    1
    39    20    23    1
    40     7    14    1
    41    10    15    1
    42    33    35    1
@<TRIPOS>MOLECULE
*****
 39 42 0 0 0
SMALL
GASTEIGER

@<TRIPOS>ATOM
      1 C          62.3225   87.6414   11.4354 C.ar    1  UNL1        0.2144
      2 C          62.5178   89.1249   11.3306 C.ar    1  UNL1        0.1822
      3 O          61.8392   89.8953   10.2370 O.2     1  UNL1       -0.4500
      4 C          60.9654   89.1821    9.2481 C.ar    1  UNL1        0.1545
      5 C          60.2869   89.9525    8.1545 C.ar    1  UNL1        0.0744
      6 C          59.4130   89.2393    7.1656 C.ar    1  UNL1        0.1397
      7 O          58.7345   90.0097    6.0719 O.3     1  UNL1       -0.5053
      8 C          59.2178   87.7558    7.2705 C.ar    1  UNL1        0.0735
      9 C          59.8963   86.9854    8.3641 C.ar    1  UNL1        0.1428
     10 O          59.7010   85.5019    8.4689 O.3     1  UNL1       -0.5052
     11 C          60.7701   87.6986    9.3529 C.ar    1  UNL1        0.1104
     12 C          61.4487   86.9282   10.4466 C.ar    1  UNL1        0.2382
     13 O          61.2534   85.4447   10.5514 O.2     1  UNL1       -0.2830
     14 H          58.8564   90.9364    6.0064 H       1  UNL1        0.2922
     15 H          59.1551   85.0564    7.8512 H       1  UNL1        0.2922
     16 C          63.3916   89.8381   12.3195 C.ar    1  UNL1        0.0379
     17 C          63.6930   89.2066   13.6463 C.ar    1  UNL1        0.0062
     18 C          64.5668   89.9197   14.6351 C.ar    1  UNL1        0.0367
     19 C          65.1393   91.2644   14.2971 C.ar    1  UNL1        0.1337
     20 O          66.0132   91.9776   15.2860 O.3     1  UNL1       -0.5055
     21 C          64.8379   91.8959   12.9704 C.ar    1  UNL1        0.0367
     22 C          63.9641   91.1827   11.9816 C.ar    1  UNL1        0.0062
     23 H          66.2014   91.5831   16.1148 H       1  UNL1        0.2922
     24 O          63.0011   86.8710   12.5292 O.3     1  UNL1       -0.4441
     25 C          62.8800   83.0146   13.4585 C.3     1  UNL1        0.2306
     26 C          63.4279   82.4032   12.2031 C.3     1  UNL1        0.1804
     27 O          63.5702   80.9139   12.0945 O.3     1  UNL1       -0.3785
     28 C          63.8336   83.2810   11.0564 C.3     1  UNL1        0.1494
     29 C          64.3815   82.6696    9.8011 C.3     1  UNL1        0.0349
     30 O          63.6913   84.7703   11.1651 O.3     1  UNL1       -0.3186
     31 C          63.1433   85.3817   12.4205 C.3     1  UNL1        0.3194
     32 C          62.7377   84.5039   13.5671 C.3     1  UNL1        0.2240
     33 O          62.1898   85.1154   14.8224 O.3     1  UNL1       -0.3758
     34 H          63.9365   80.6866   11.2255 H       1  UNL1        0.2106
     35 H          62.1644   86.0804   14.7276 H       1  UNL1        0.2107
     36 O          62.4744   82.1368   14.6051 O.3     1  UNL1       -0.4468
     37 C          60.3900   80.6675   14.1084 C.3     1  UNL1        0.1212
     38 C          61.8667   80.7911   14.3410 C.2     1  UNL1        0.3176
     39 O          62.7357   79.5689   14.3095 O.2     1  UNL1       -0.2501
@<TRIPOS>BOND
     1    37    38    1
     2    38    39    2
     3    38    36    1
     4    25    36    1
     5    25    26    1
     6    26    27    1
     7    26    28    1
     8    28    29    1
     9    28    30    1
    10    30    31    1
    11    31    24    1
    12    24     1    1
    13     1     2   ar
    14     2    16    1
    15    16    17   ar
    16    17    18   ar
    17    18    19   ar
    18    19    20    1
    19    19    21   ar
    20    21    22   ar
    21     2     3   ar
    22     3     4   ar
    23     4     5   ar
    24     5     6   ar
    25     6     7    1
    26     6     8   ar
    27     8     9   ar
    28     9    10    1
    29     9    11   ar
    30    11    12   ar
    31    12    13    2
    32    31    32    1
    33    32    33    1
    34    32    25    1
    35    12     1   ar
    36    22    16   ar
    37    11     4   ar
    38    27    34    1
    39    20    23    1
    40     7    14    1
    41    10    15    1
    42    33    35    1
@<TRIPOS>MOLECULE
*****
 39 42 0 0 0
SMALL
GASTEIGER

@<TRIPOS>ATOM
      1 C          63.2123   87.7379   11.9372 C.ar    1  UNL1        0.2144
      2 C          62.8589   89.1930   12.0250 C.ar    1  UNL1        0.1822
      3 O          61.8453   89.7766   11.0858 O.2     1  UNL1       -0.4500
      4 C          61.1852   88.9051   10.0587 C.ar    1  UNL1        0.1545
      5 C          60.1717   89.4887    9.1195 C.ar    1  UNL1        0.0744
      6 C          59.5117   88.6172    8.0925 C.ar    1  UNL1        0.1397
      7 O          58.4981   89.2008    7.1533 O.3     1  UNL1       -0.5053
      8 C          59.8652   87.1621    8.0047 C.ar    1  UNL1        0.0735
      9 C          60.8787   86.5785    8.9439 C.ar    1  UNL1        0.1428
     10 O          61.2322   85.1234    8.8561 O.3     1  UNL1       -0.5052
     11 C          61.5387   87.4500    9.9709 C.ar    1  UNL1        0.1104
     12 C          62.5523   86.8664   10.9102 C.ar    1  UNL1        0.2382
     13 O          62.9058   85.4113   10.8224 O.2     1  UNL1       -0.2830
     14 H          58.2773   90.1097    7.2081 H       1  UNL1        0.2922
     15 H          60.8199   84.5790    8.2145 H       1  UNL1        0.2922
     16 C          63.5189   90.0645   13.0521 C.ar    1  UNL1        0.0379
     17 C          63.1599   89.9195   14.5012 C.ar    1  UNL1        0.0062
     18 C          63.8200   90.7910   15.5282 C.ar    1  UNL1        0.0367
     19 C          64.8391   91.8075   15.1061 C.ar    1  UNL1        0.1337
     20 O          65.4992   92.6790   16.1332 O.3     1  UNL1       -0.5055
     21 C          65.1981   91.9525   13.6569 C.ar    1  UNL1        0.0367
     22 C          64.5380   91.0810   12.6300 C.ar    1  UNL1        0.0062
     23 H          65.2749   92.5884   17.0384 H       1  UNL1        0.2922
     24 O          64.2259   87.1543   12.8765 O.3     1  UNL1       -0.4441
     25 C          63.3625   83.7859   14.7891 C.3     1  UNL1        0.2306
     26 C          62.9195   84.3204   16.1187 C.3     1  UNL1        0.1804
     27 O          62.4840   83.3758   17.1995 O.3     1  UNL1       -0.3785
     28 C          62.9119   85.7997   16.3677 C.3     1  UNL1        0.1494
     29 C          62.4689   86.3342   17.6973 C.3     1  UNL1        0.0349
     30 O          63.3474   86.7443   15.2869 O.3     1  UNL1       -0.3186
     31 C          63.7905   86.2097   13.9572 C.3     1  UNL1        0.3194
     32 C          63.7980   84.7305   13.7084 C.3     1  UNL1        0.2240
     33 O          64.2410   84.1960   12.3787 O.3     1  UNL1       -0.3758
     34 H          62.2315   83.8810   17.9881 H       1  UNL1        0.2106
     35 H          64.4872   84.9339   11.7993 H       1  UNL1        0.2107
     36 O          63.3701   82.3067   14.5403 O.3     1  UNL1       -0.4468
     37 C          61.1261   81.0484   14.1777 C.3     1  UNL1        0.1212
     38 C          62.3575   81.6963   13.6172 C.2     1  UNL1        0.3176
     39 O          62.5762   81.7337   12.1338 O.2     1  UNL1       -0.2501
@<TRIPOS>BOND
     1    37    38    1
     2    38    39    2
     3    38    36    1
     4    25    36    1
     5    25    26    1
     6    26    27    1
     7    26    28    1
     8    28    29    1
     9    28    30    1
    10    30    31    1
    11    31    24    1
    12    24     1    1
    13     1     2   ar
    14     2    16    1
    15    16    17   ar
    16    17    18   ar
    17    18    19   ar
    18    19    20    1
    19    19    21   ar
    20    21    22   ar
    21     2     3   ar
    22     3     4   ar
    23     4     5   ar
    24     5     6   ar
    25     6     7    1
    26     6     8   ar
    27     8     9   ar
    28     9    10    1
    29     9    11   ar
    30    11    12   ar
    31    12    13    2
    32    31    32    1
    33    32    33    1
    34    32    25    1
    35    12     1   ar
    36    22    16   ar
    37    11     4   ar
    38    27    34    1
    39    20    23    1
    40     7    14    1
    41    10    15    1
    42    33    35    1
@<TRIPOS>MOLECULE
*****
 39 42 0 0 0
SMALL
GASTEIGER

@<TRIPOS>ATOM
      1 C          62.8487   87.7811   11.3350 C.ar    1  UNL1        0.2144
      2 C          62.5851   89.2565   11.3964 C.ar    1  UNL1        0.1822
      3 O          61.6148   89.8854   10.4409 O.2     1  UNL1       -0.4500
      4 C          60.9080   89.0390    9.4241 C.ar    1  UNL1        0.1545
      5 C          59.9377   89.6679    8.4686 C.ar    1  UNL1        0.0744
      6 C          59.2309   88.8214    7.4519 C.ar    1  UNL1        0.1397
      7 O          58.2605   89.4503    6.4963 O.3     1  UNL1       -0.5053
      8 C          59.4944   87.3460    7.3905 C.ar    1  UNL1        0.0735
      9 C          60.4647   86.7171    8.3460 C.ar    1  UNL1        0.1428
     10 O          60.7283   85.2417    8.2846 O.3     1  UNL1       -0.5052
     11 C          61.1715   87.5636    9.3627 C.ar    1  UNL1        0.1104
     12 C          62.1419   86.9347   10.3183 C.ar    1  UNL1        0.2382
     13 O          62.4054   85.4593   10.2569 O.2     1  UNL1       -0.2830
     14 H          58.0959   90.3720    6.5347 H       1  UNL1        0.2922
     15 H          60.2867   84.7129    7.6494 H       1  UNL1        0.2922
     16 C          63.2920   90.1030   12.4132 C.ar    1  UNL1        0.0379
     17 C          63.0503   89.8765   13.8762 C.ar    1  UNL1        0.0062
     18 C          63.7571   90.7230   14.8930 C.ar    1  UNL1        0.0367
     19 C          64.7056   91.7959   14.4468 C.ar    1  UNL1        0.1337
     20 O          65.4125   92.6424   15.4636 O.3     1  UNL1       -0.5055
     21 C          64.9473   92.0224   12.9838 C.ar    1  UNL1        0.0367
     22 C          64.2405   91.1760   11.9671 C.ar    1  UNL1        0.0062
     23 H          65.2615   92.5009   16.3775 H       1  UNL1        0.2922
     24 O          63.8190   87.1522   12.2906 O.3     1  UNL1       -0.4441
     25 C          62.9341   84.7060   15.2877 C.3     1  UNL1        0.2306
     26 C          62.6668   83.4312   14.5437 C.3     1  UNL1        0.1804
     27 O          62.2827   82.1909   15.2947 O.3     1  UNL1       -0.3785
     28 C          62.7836   83.3968   13.0486 C.3     1  UNL1        0.1494
     29 C          62.5163   82.1220   12.3046 C.3     1  UNL1        0.0349
     30 O          63.1677   84.6371   12.2975 O.3     1  UNL1       -0.3186
     31 C          63.4350   85.9119   13.0416 C.3     1  UNL1        0.3194
     32 C          63.3182   85.9463   14.5366 C.3     1  UNL1        0.2240
     33 O          63.5854   87.2210   15.2806 O.3     1  UNL1       -0.3758
     34 H          62.1469   81.4627   14.6685 H       1  UNL1        0.2106
     35 H          63.8194   87.9203   14.6503 H       1  UNL1        0.2107
     36 O          62.8173   84.7404   16.7827 O.3     1  UNL1       -0.4468
     37 C          62.8729   86.5616   18.6348 C.3     1  UNL1        0.1212
     38 C          62.1929   85.9247   17.4591 C.2     1  UNL1        0.3176
     39 O          60.8886   86.4720   16.9600 O.2     1  UNL1       -0.2501
@<TRIPOS>BOND
     1    37    38    1
     2    38    39    2
     3    38    36    1
     4    25    36    1
     5    25    26    1
     6    26    27    1
     7    26    28    1
     8    28    29    1
     9    28    30    1
    10    30    31    1
    11    31    24    1
    12    24     1    1
    13     1     2   ar
    14     2    16    1
    15    16    17   ar
    16    17    18   ar
    17    18    19   ar
    18    19    20    1
    19    19    21   ar
    20    21    22   ar
    21     2     3   ar
    22     3     4   ar
    23     4     5   ar
    24     5     6   ar
    25     6     7    1
    26     6     8   ar
    27     8     9   ar
    28     9    10    1
    29     9    11   ar
    30    11    12   ar
    31    12    13    2
    32    31    32    1
    33    32    33    1
    34    32    25    1
    35    12     1   ar
    36    22    16   ar
    37    11     4   ar
    38    27    34    1
    39    20    23    1
    40     7    14    1
    41    10    15    1
    42    33    35    1
