@<TRIPOS>MOLECULE
*****
 36 39 0 0 0
SMALL
GASTEIGER

@<TRIPOS>ATOM
      1 N          63.5929   90.6773   11.9233 N.am    1  UNL1       -0.2438
      2 C          64.2816   90.5374   13.2485 C.3     1  UNL1        0.1009
      3 C          65.4820   91.3803   13.5625 C.3     1  UNL1        0.0662
      4 C          65.9937   92.3631   12.5513 C.3     1  UNL1        0.1621
      5 O          65.3049   92.5029   11.2261 O.3     1  UNL1       -0.4374
      6 C          64.1045   91.6601   10.9121 C.2     1  UNL1        0.4051
      7 O          63.4158   91.7999    9.5870 O.2     1  UNL1       -0.2262
      8 C          66.9790   92.5921   13.6590 C.ar    1  UNL1        0.0413
      9 C          66.5931   93.4244   14.8457 C.ar    1  UNL1        0.0013
     10 C          67.5784   93.6535   15.9533 C.ar    1  UNL1       -0.0001
     11 C          68.9495   93.0503   15.8741 C.ar    1  UNL1        0.0023
     12 C          69.3354   92.2180   14.6873 C.ar    1  UNL1        0.0294
     13 C          68.3501   91.9890   13.5797 C.ar    1  UNL1        0.1393
     14 F          68.7358   91.1567   12.3929 F       1  UNL1       -0.2044
     15 C          61.1421   90.4758   11.0849 C.3     1  UNL1        0.0265
     16 C          62.3925   89.8344   11.6093 C.3     1  UNL1        0.1011
     17 C          62.4426   88.3500   11.8198 C.ar    1  UNL1       -0.0042
     18 C          61.5629   87.4472   11.0068 C.ar    1  UNL1       -0.0027
     19 C          61.6129   85.9629   11.2173 C.ar    1  UNL1       -0.0003
     20 C          62.5427   85.3814   12.2407 C.ar    1  UNL1        0.0002
     21 C          63.4224   86.2843   13.0537 C.ar    1  UNL1       -0.0003
     22 C          63.3723   87.7686   12.8432 C.ar    1  UNL1       -0.0027
     23 C          62.5928   83.8971   12.4512 C.ar    1  UNL1        0.0062
     24 C          62.4031   83.3276   13.8258 C.ar    1  UNL1        0.0189
     25 C          62.4531   81.8433   14.0363 C.ar    1  UNL1        0.0784
     26 N          62.6929   80.9284   12.8720 N.ar    1  UNL1       -0.2922
     27 C          62.7430   79.4441   13.0824 C.3     1  UNL1        0.1336
     28 C          62.8826   81.4979   11.4973 C.ar    1  UNL1        0.2610
     29 O          63.1224   80.5830   10.3330 O.2     1  UNL1       -0.2670
     30 C          62.8326   82.9822   11.2869 C.ar    1  UNL1        0.0608
     31 C          66.8475   93.4254   11.9248 C.3     1  UNL1        0.0715
     32 C          66.5858   93.8628   10.5142 C.3     1  UNL1        0.0922
     33 C          67.4357   92.7357   10.0069 C.3     1  UNL1        0.0294
     34 C          65.7359   94.9899   11.0214 C.3     1  UNL1        0.0294
     35 O          66.3241   94.3002    9.1034 O.3     1  UNL1       -0.3866
     36 H          66.7859   93.7073    8.4902 H       1  UNL1        0.2102
@<TRIPOS>BOND
     1    16    15    1
     2    16    17    1
     3    17    18   ar
     4    18    19   ar
     5    19    20   ar
     6    20    23    1
     7    23    24   ar
     8    24    25   ar
     9    25    26   ar
    10    26    27    1
    11    26    28   ar
    12    28    29    2
    13    28    30   ar
    14    20    21   ar
    15    21    22   ar
    16    16     1    1
    17     1     2    1
    18     2     3    1
    19     3     4    1
    20     4    31    1
    21    31    32    1
    22    32    33    1
    23    32    34    1
    24    32    35    1
    25     4     8    1
    26     8     9   ar
    27     9    10   ar
    28    10    11   ar
    29    11    12   ar
    30    12    13   ar
    31    13    14    1
    32     4     5    1
    33     5     6    1
    34     6     7    2
    35    22    17   ar
    36     6     1   am
    37    30    23   ar
    38    13     8   ar
    39    35    36    1
@<TRIPOS>MOLECULE
*****
 36 39 0 0 0
SMALL
GASTEIGER

@<TRIPOS>ATOM
      1 N          63.0852   90.9893   11.6372 N.am    1  UNL1       -0.2438
      2 C          63.5619   91.6932   10.4014 C.3     1  UNL1        0.1009
      3 C          64.7570   92.5973   10.4669 C.3     1  UNL1        0.0662
      4 C          65.4755   92.7975   11.7683 C.3     1  UNL1        0.1621
      5 O          64.9988   92.0937   13.0042 O.3     1  UNL1       -0.4374
      6 C          63.8037   91.1896   12.9387 C.2     1  UNL1        0.4051
      7 O          63.3270   90.4858   14.1745 O.2     1  UNL1       -0.2262
      8 C          66.3013   93.6770   10.8768 C.ar    1  UNL1        0.0413
      9 C          66.1352   95.1668   10.9309 C.ar    1  UNL1        0.0013
     10 C          66.9610   96.0463   10.0394 C.ar    1  UNL1       -0.0001
     11 C          67.9528   95.4359    9.0940 C.ar    1  UNL1        0.0023
     12 C          68.1188   93.9461    9.0400 C.ar    1  UNL1        0.0294
     13 C          67.2930   93.0666    9.9314 C.ar    1  UNL1        0.1393
     14 F          67.4590   91.5769    9.8774 F       1  UNL1       -0.2044
     15 C          60.5163   90.6680   11.4202 C.3     1  UNL1        0.0265
     16 C          61.8901   90.0853   11.5717 C.3     1  UNL1        0.1011
     17 C          62.0688   88.5984   11.6577 C.ar    1  UNL1       -0.0042
     18 C          61.1524   87.6875   10.8959 C.ar    1  UNL1       -0.0027
     19 C          61.3312   86.2007   10.9820 C.ar    1  UNL1       -0.0003
     20 C          62.4264   85.6248   11.8298 C.ar    1  UNL1        0.0002
     21 C          63.3429   86.5357   12.5915 C.ar    1  UNL1       -0.0003
     22 C          63.1641   88.0225   12.5055 C.ar    1  UNL1       -0.0027
     23 C          62.6052   84.1379   11.9158 C.ar    1  UNL1        0.0062
     24 C          63.0615   83.3666   10.7130 C.ar    1  UNL1        0.0189
     25 C          63.2403   81.8797   10.7990 C.ar    1  UNL1        0.0784
     26 N          62.9627   81.1643   12.0878 N.ar    1  UNL1       -0.2922
     27 C          63.1414   79.6775   12.1739 C.3     1  UNL1        0.1336
     28 C          62.5063   81.9357   13.2907 C.ar    1  UNL1        0.2610
     29 O          62.2287   81.2202   14.5795 O.2     1  UNL1       -0.2670
     30 C          62.3276   83.4225   13.2046 C.ar    1  UNL1        0.0608
     31 C          66.4808   93.3032   12.7601 C.3     1  UNL1        0.0715
     32 C          66.9686   92.4050   13.8579 C.3     1  UNL1        0.0922
     33 C          67.7826   91.6315   12.8633 C.3     1  UNL1        0.0294
     34 C          66.1547   93.1784   14.8524 C.3     1  UNL1        0.0294
     35 O          67.4565   91.5067   14.9556 O.3     1  UNL1       -0.3866
     36 H          68.0580   90.8416   14.5858 H       1  UNL1        0.2102
@<TRIPOS>BOND
     1    16    15    1
     2    16    17    1
     3    17    18   ar
     4    18    19   ar
     5    19    20   ar
     6    20    23    1
     7    23    24   ar
     8    24    25   ar
     9    25    26   ar
    10    26    27    1
    11    26    28   ar
    12    28    29    2
    13    28    30   ar
    14    20    21   ar
    15    21    22   ar
    16    16     1    1
    17     1     2    1
    18     2     3    1
    19     3     4    1
    20     4    31    1
    21    31    32    1
    22    32    33    1
    23    32    34    1
    24    32    35    1
    25     4     8    1
    26     8     9   ar
    27     9    10   ar
    28    10    11   ar
    29    11    12   ar
    30    12    13   ar
    31    13    14    1
    32     4     5    1
    33     5     6    1
    34     6     7    2
    35    22    17   ar
    36     6     1   am
    37    30    23   ar
    38    13     8   ar
    39    35    36    1
@<TRIPOS>MOLECULE
*****
 36 39 0 0 0
SMALL
GASTEIGER

@<TRIPOS>ATOM
      1 N          63.5649   90.6545   11.9816 N.am    1  UNL1       -0.2438
      2 C          64.2464   90.5226   13.3113 C.3     1  UNL1        0.1009
      3 C          65.4581   91.3518   13.6185 C.3     1  UNL1        0.0662
      4 C          65.9882   92.3128   12.5961 C.3     1  UNL1        0.1621
      5 O          65.3066   92.4447   11.2663 O.3     1  UNL1       -0.4374
      6 C          64.0950   91.6155   10.9591 C.2     1  UNL1        0.4051
      7 O          63.4135   91.7474    9.6294 O.2     1  UNL1       -0.2262
      8 C          66.9726   92.5424   13.7044 C.ar    1  UNL1        0.0413
      9 C          66.5743   93.3461   14.9067 C.ar    1  UNL1        0.0013
     10 C          67.5587   93.5757   16.0150 C.ar    1  UNL1       -0.0001
     11 C          68.9413   93.0016   15.9209 C.ar    1  UNL1        0.0023
     12 C          69.3396   92.1980   14.7186 C.ar    1  UNL1        0.0294
     13 C          68.3552   91.9684   13.6103 C.ar    1  UNL1        0.1393
     14 F          68.7534   91.1647   12.4080 F       1  UNL1       -0.2044
     15 C          61.0658   90.4922   11.2902 C.3     1  UNL1        0.0265
     16 C          62.3533   89.8253   11.6743 C.3     1  UNL1        0.1011
     17 C          62.4291   88.3291   11.7512 C.ar    1  UNL1       -0.0042
     18 C          63.3281   87.6745   12.7578 C.ar    1  UNL1       -0.0027
     19 C          63.4039   86.1784   12.8347 C.ar    1  UNL1       -0.0003
     20 C          62.5808   85.3370   11.9049 C.ar    1  UNL1        0.0002
     21 C          61.6819   85.9916   10.8983 C.ar    1  UNL1       -0.0003
     22 C          61.6060   87.4877   10.8215 C.ar    1  UNL1       -0.0027
     23 C          62.6567   83.8408   11.9818 C.ar    1  UNL1        0.0062
     24 C          63.1056   83.0503   10.7887 C.ar    1  UNL1        0.0189
     25 C          63.1815   81.5542   10.8655 C.ar    1  UNL1        0.0784
     26 N          62.8085   80.8486   12.1356 N.ar    1  UNL1       -0.2922
     27 C          62.8844   79.3525   12.2125 C.3     1  UNL1        0.1336
     28 C          62.3596   81.6392   13.3288 C.ar    1  UNL1        0.2610
     29 O          61.9867   80.9336   14.5988 O.2     1  UNL1       -0.2670
     30 C          62.2838   83.1352   13.2518 C.ar    1  UNL1        0.0608
     31 C          66.8602   93.3536   11.9585 C.3     1  UNL1        0.0715
     32 C          66.5960   93.7922   10.5487 C.3     1  UNL1        0.0922
     33 C          67.4223   92.6491   10.0382 C.3     1  UNL1        0.0294
     34 C          65.7697   94.9353   11.0591 C.3     1  UNL1        0.0294
     35 O          66.3318   94.2308    9.1388 O.3     1  UNL1       -0.3866
     36 H          66.7787   93.6284    8.5237 H       1  UNL1        0.2102
@<TRIPOS>BOND
     1    16    15    1
     2    16    17    1
     3    17    18   ar
     4    18    19   ar
     5    19    20   ar
     6    20    23    1
     7    23    24   ar
     8    24    25   ar
     9    25    26   ar
    10    26    27    1
    11    26    28   ar
    12    28    29    2
    13    28    30   ar
    14    20    21   ar
    15    21    22   ar
    16    16     1    1
    17     1     2    1
    18     2     3    1
    19     3     4    1
    20     4    31    1
    21    31    32    1
    22    32    33    1
    23    32    34    1
    24    32    35    1
    25     4     8    1
    26     8     9   ar
    27     9    10   ar
    28    10    11   ar
    29    11    12   ar
    30    12    13   ar
    31    13    14    1
    32     4     5    1
    33     5     6    1
    34     6     7    2
    35    22    17   ar
    36     6     1   am
    37    30    23   ar
    38    13     8   ar
    39    35    36    1
@<TRIPOS>MOLECULE
*****
 36 39 0 0 0
SMALL
GASTEIGER

@<TRIPOS>ATOM
      1 N          63.6735   87.8872   13.9180 N.am    1  UNL1       -0.2438
      2 C          64.1692   86.6452   14.5974 C.3     1  UNL1        0.1009
      3 C          63.8687   85.2981   14.0098 C.3     1  UNL1        0.0662
      4 C          63.0726   85.1932   12.7429 C.3     1  UNL1        0.1621
      5 O          62.5770   86.4352   12.0634 O.3     1  UNL1       -0.4374
      6 C          62.8774   87.7823   12.6510 C.2     1  UNL1        0.4051
      7 O          62.3818   89.0243   11.9716 O.2     1  UNL1       -0.2262
      8 C          63.3219   83.7392   13.0151 C.ar    1  UNL1        0.0413
      9 C          64.3952   83.0088   12.2638 C.ar    1  UNL1        0.0013
     10 C          64.6444   81.5549   12.5360 C.ar    1  UNL1       -0.0001
     11 C          63.8203   80.8315   13.5595 C.ar    1  UNL1        0.0023
     12 C          62.7470   81.5619   14.3108 C.ar    1  UNL1        0.0294
     13 C          62.4978   83.0158   14.0386 C.ar    1  UNL1        0.1393
     14 F          61.4245   83.7463   14.7898 F       1  UNL1       -0.2044
     15 C          63.7155   89.4925   15.9603 C.3     1  UNL1        0.0265
     16 C          63.9740   89.2343   14.5055 C.3     1  UNL1        0.1011
     17 C          64.5329   90.3231   13.6382 C.ar    1  UNL1       -0.0042
     18 C          63.7948   90.7531   12.4053 C.ar    1  UNL1       -0.0027
     19 C          64.3537   91.8418   11.5380 C.ar    1  UNL1       -0.0003
     20 C          65.6507   92.5006   11.9037 C.ar    1  UNL1        0.0002
     21 C          66.3888   92.0706   13.1367 C.ar    1  UNL1       -0.0003
     22 C          65.8299   90.9818   14.0039 C.ar    1  UNL1       -0.0027
     23 C          66.2096   93.5894   11.0364 C.ar    1  UNL1        0.0062
     24 C          66.0755   95.0239   11.4537 C.ar    1  UNL1        0.0189
     25 C          66.6345   96.1127   10.5864 C.ar    1  UNL1        0.0784
     26 N          67.3274   95.7670    9.3018 N.ar    1  UNL1       -0.2922
     27 C          67.8863   96.8557    8.4345 C.3     1  UNL1        0.1336
     28 C          67.4615   94.3324    8.8845 C.ar    1  UNL1        0.2610
     29 O          68.1545   93.9866    7.5999 O.2     1  UNL1       -0.2670
     30 C          66.9026   93.2437    9.7518 C.ar    1  UNL1        0.0608
     31 C          62.3631   84.5832   11.5704 C.3     1  UNL1        0.0715
     32 C          62.3147   85.3127   10.2607 C.3     1  UNL1        0.0922
     33 C          63.5425   84.5798    9.8072 C.3     1  UNL1        0.0294
     34 C          61.0870   86.0455   10.7141 C.3     1  UNL1        0.0294
     35 O          62.2665   86.0421    8.9508 O.3     1  UNL1       -0.3866
     36 H          63.0046   85.7525    8.3921 H       1  UNL1        0.2102
@<TRIPOS>BOND
     1    16    15    1
     2    16    17    1
     3    17    18   ar
     4    18    19   ar
     5    19    20   ar
     6    20    23    1
     7    23    24   ar
     8    24    25   ar
     9    25    26   ar
    10    26    27    1
    11    26    28   ar
    12    28    29    2
    13    28    30   ar
    14    20    21   ar
    15    21    22   ar
    16    16     1    1
    17     1     2    1
    18     2     3    1
    19     3     4    1
    20     4    31    1
    21    31    32    1
    22    32    33    1
    23    32    34    1
    24    32    35    1
    25     4     8    1
    26     8     9   ar
    27     9    10   ar
    28    10    11   ar
    29    11    12   ar
    30    12    13   ar
    31    13    14    1
    32     4     5    1
    33     5     6    1
    34     6     7    2
    35    22    17   ar
    36     6     1   am
    37    30    23   ar
    38    13     8   ar
    39    35    36    1
@<TRIPOS>MOLECULE
*****
 36 39 0 0 0
SMALL
GASTEIGER

@<TRIPOS>ATOM
      1 N          62.1258   87.4048   12.0020 N.am    1  UNL1       -0.2438
      2 C          61.7195   86.2246   11.1701 C.3     1  UNL1        0.1009
      3 C          62.2796   84.8661   11.4716 C.3     1  UNL1        0.0662
      4 C          63.2459   84.6878   12.6048 C.3     1  UNL1        0.1621
      5 O          63.6523   85.8680   13.4367 O.3     1  UNL1       -0.4374
      6 C          63.0922   87.2265   13.1353 C.2     1  UNL1        0.4051
      7 O          63.4985   88.4067   13.9671 O.2     1  UNL1       -0.2262
      8 C          63.1655   83.2753   12.1064 C.ar    1  UNL1        0.0413
      9 C          62.4335   82.2385   12.9059 C.ar    1  UNL1        0.0013
     10 C          62.3531   80.8259   12.4075 C.ar    1  UNL1       -0.0001
     11 C          63.0047   80.4503   11.1097 C.ar    1  UNL1        0.0023
     12 C          63.7368   81.4871   10.3103 C.ar    1  UNL1        0.0294
     13 C          63.8172   82.8997   10.8087 C.ar    1  UNL1        0.1393
     14 F          64.5492   83.9365   10.0093 F       1  UNL1       -0.2044
     15 C          60.0823   88.9841   11.7197 C.3     1  UNL1        0.0265
     16 C          61.5658   88.7633   11.7005 C.3     1  UNL1        0.1011
     17 C          62.4893   89.9010   11.3799 C.ar    1  UNL1       -0.0042
     18 C          62.5424   90.4540    9.9866 C.ar    1  UNL1       -0.0027
     19 C          63.4659   91.5917    9.6660 C.ar    1  UNL1       -0.0003
     20 C          64.3363   92.1763   10.7387 C.ar    1  UNL1        0.0002
     21 C          64.2832   91.6232   12.1320 C.ar    1  UNL1       -0.0003
     22 C          63.3597   90.4856   12.4526 C.ar    1  UNL1       -0.0027
     23 C          65.2599   93.3140   10.4180 C.ar    1  UNL1        0.0062
     24 C          64.7395   94.7207   10.4018 C.ar    1  UNL1        0.0189
     25 C          65.6630   95.8584   10.0811 C.ar    1  UNL1        0.0784
     26 N          67.1069   95.5893    9.7767 N.ar    1  UNL1       -0.2922
     27 C          68.0305   96.7270    9.4561 C.3     1  UNL1        0.1336
     28 C          67.6273   94.1825    9.7930 C.ar    1  UNL1        0.2610
     29 O          69.0713   93.9135    9.4886 O.2     1  UNL1       -0.2670
     30 C          66.7038   93.0449   10.1137 C.ar    1  UNL1        0.0608
     31 C          64.1844   84.0190   13.5651 C.3     1  UNL1        0.0715
     32 C          64.3888   84.5920   14.9361 C.3     1  UNL1        0.0922
     33 C          65.7755   85.0160   14.5521 C.3     1  UNL1        0.0294
     34 C          63.0022   84.1681   15.3200 C.3     1  UNL1        0.0294
     35 O          64.5933   85.1651   16.3071 O.3     1  UNL1       -0.3866
     36 H          65.4828   85.5471   16.3685 H       1  UNL1        0.2102
@<TRIPOS>BOND
     1    16    15    1
     2    16    17    1
     3    17    18   ar
     4    18    19   ar
     5    19    20   ar
     6    20    23    1
     7    23    24   ar
     8    24    25   ar
     9    25    26   ar
    10    26    27    1
    11    26    28   ar
    12    28    29    2
    13    28    30   ar
    14    20    21   ar
    15    21    22   ar
    16    16     1    1
    17     1     2    1
    18     2     3    1
    19     3     4    1
    20     4    31    1
    21    31    32    1
    22    32    33    1
    23    32    34    1
    24    32    35    1
    25     4     8    1
    26     8     9   ar
    27     9    10   ar
    28    10    11   ar
    29    11    12   ar
    30    12    13   ar
    31    13    14    1
    32     4     5    1
    33     5     6    1
    34     6     7    2
    35    22    17   ar
    36     6     1   am
    37    30    23   ar
    38    13     8   ar
    39    35    36    1
@<TRIPOS>MOLECULE
*****
 36 39 0 0 0
SMALL
GASTEIGER

@<TRIPOS>ATOM
      1 N          63.7682   87.7817   14.7475 N.am    1  UNL1       -0.2438
      2 C          63.7938   87.4228   13.2913 C.3     1  UNL1        0.1009
      3 C          63.7906   85.9820   12.8738 C.3     1  UNL1        0.0662
      4 C          63.7617   84.9003   13.9125 C.3     1  UNL1        0.1621
      5 O          63.7361   85.2592   15.3687 O.3     1  UNL1       -0.4374
      6 C          63.7394   86.6999   15.7862 C.2     1  UNL1        0.4051
      7 O          63.7138   87.0588   17.2424 O.2     1  UNL1       -0.2262
      8 C          63.7794   84.0648   12.6667 C.ar    1  UNL1        0.0413
      9 C          64.8877   83.0798   12.4401 C.ar    1  UNL1        0.0013
     10 C          64.9054   82.2443   11.1943 C.ar    1  UNL1       -0.0001
     11 C          63.8148   82.3941   10.1754 C.ar    1  UNL1        0.0023
     12 C          62.7066   83.3792   10.4020 C.ar    1  UNL1        0.0294
     13 C          62.6889   84.2146   11.6478 C.ar    1  UNL1        0.1393
     14 F          61.5807   85.1997   11.8745 F       1  UNL1       -0.2044
     15 C          63.2069   89.6186   16.4970 C.3     1  UNL1        0.0265
     16 C          63.7715   89.2224   15.1650 C.3     1  UNL1        0.1011
     17 C          64.3394   90.2670   14.2504 C.ar    1  UNL1       -0.0042
     18 C          65.6522   90.9155   14.5760 C.ar    1  UNL1       -0.0027
     19 C          66.2200   91.9600   13.6614 C.ar    1  UNL1       -0.0003
     20 C          65.4750   92.3561   12.4213 C.ar    1  UNL1        0.0002
     21 C          64.1622   91.7077   12.0956 C.ar    1  UNL1       -0.0003
     22 C          63.5944   90.6632   13.0102 C.ar    1  UNL1       -0.0027
     23 C          66.0429   93.4007   11.5067 C.ar    1  UNL1        0.0062
     24 C          65.9338   94.8526   11.8672 C.ar    1  UNL1        0.0189
     25 C          66.5017   95.8972   10.9526 C.ar    1  UNL1        0.0784
     26 N          67.1786   95.4898    9.6775 N.ar    1  UNL1       -0.2922
     27 C          67.7465   96.5344    8.7629 C.3     1  UNL1        0.1336
     28 C          67.2876   94.0378    9.3170 C.ar    1  UNL1        0.2610
     29 O          67.9646   93.6304    8.0420 O.2     1  UNL1       -0.2670
     30 C          66.7198   92.9933   10.2316 C.ar    1  UNL1        0.0608
     31 C          63.7390   83.5283   14.5185 C.3     1  UNL1        0.0715
     32 C          62.4431   82.7825   14.6380 C.3     1  UNL1        0.0922
     33 C          63.1328   81.5172   14.2214 C.3     1  UNL1        0.0294
     34 C          61.7534   84.0477   15.0546 C.3     1  UNL1        0.0294
     35 O          61.1472   82.0366   14.7574 O.3     1  UNL1       -0.3866
     36 H          61.2884   81.1045   14.5291 H       1  UNL1        0.2102
@<TRIPOS>BOND
     1    16    15    1
     2    16    17    1
     3    17    18   ar
     4    18    19   ar
     5    19    20   ar
     6    20    23    1
     7    23    24   ar
     8    24    25   ar
     9    25    26   ar
    10    26    27    1
    11    26    28   ar
    12    28    29    2
    13    28    30   ar
    14    20    21   ar
    15    21    22   ar
    16    16     1    1
    17     1     2    1
    18     2     3    1
    19     3     4    1
    20     4    31    1
    21    31    32    1
    22    32    33    1
    23    32    34    1
    24    32    35    1
    25     4     8    1
    26     8     9   ar
    27     9    10   ar
    28    10    11   ar
    29    11    12   ar
    30    12    13   ar
    31    13    14    1
    32     4     5    1
    33     5     6    1
    34     6     7    2
    35    22    17   ar
    36     6     1   am
    37    30    23   ar
    38    13     8   ar
    39    35    36    1
