@<TRIPOS>MOLECULE
*****
 28 32 0 0 0
SMALL
GASTEIGER

@<TRIPOS>ATOM
      1 C          61.9194   87.5453   11.0648 C.ar    1  UNL1        0.1352
      2 C          62.8568   88.3521   11.9136 C.ar    1  UNL1        0.0551
      3 C          62.3682   89.5946   12.5976 C.ar    1  UNL1        0.1052
      4 N          60.9423   90.0300   12.4328 N.ar    1  UNL1       -0.2223
      5 C          60.0050   89.2231   11.5841 C.ar    1  UNL1        0.2001
      6 N          60.4935   87.9807   10.9001 N.ar    1  UNL1       -0.2090
      7 C          63.3055   90.4014   13.4463 C.2     1  UNL1        0.1218
      8 N          63.3829   90.3751   14.9441 N.2     1  UNL1       -0.1467
      9 N          64.4553   91.3337   15.3697 N.2     1  UNL1       -0.1520
     10 C          65.0407   91.9525   14.1349 C.2     1  UNL1        0.0866
     11 C          66.1289   92.9661   13.9395 C.3     1  UNL1        0.0768
     12 C          66.5066   93.4035   12.5553 C.2     1  UNL1        0.0171
     13 C          65.7959   92.8273   11.3666 C.2     1  UNL1        0.1344
     14 C          64.7077   91.8137   11.5621 C.2     1  UNL1        0.0394
     15 C          64.3301   91.3763   12.9462 C.2     1  UNL1        0.0395
     16 O          66.1737   93.2648    9.9823 O.2     1  UNL1       -0.4829
     17 C          67.6116   93.2454    9.5558 C.3     1  UNL1        0.1334
     18 C          67.7808   94.6781    9.1453 C.3     1  UNL1        0.0436
     19 C          68.9907   92.7284    9.2719 C.3     1  UNL1        0.0436
     20 C          67.9417   91.8058    9.8183 C.3     1  UNL1        0.0436
     21 C          64.1031   82.8366   11.3091 C.3     1  UNL1        0.0339
     22 C          63.4999   83.9485   10.5030 C.3     1  UNL1        0.1350
     23 C          63.0112   85.1910   11.1869 C.3     1  UNL1        0.1216
     24 N          62.4080   86.3029   10.3809 N.pl3   1  UNL1       -0.2882
     25 C          62.2935   86.1725    8.8910 C.3     1  UNL1        0.1216
     26 C          62.7822   84.9302    8.2071 C.3     1  UNL1        0.1350
     27 C          62.6676   84.7998    6.7172 C.3     1  UNL1        0.0339
     28 O          63.3854   83.8181    9.0131 O.3     1  UNL1       -0.3552
@<TRIPOS>BOND
     1    22    21    1
     2    22    23    1
     3    23    24    1
     4    24     1    1
     5     1     2   ar
     6     2     3   ar
     7     3     7    1
     8     7     8    2
     9     8     9    1
    10     9    10    2
    11    10    11    1
    12    11    12    1
    13    12    13    2
    14    13    16    1
    15    16    17    1
    16    17    18    1
    17    17    19    1
    18    19    20    1
    19    13    14    1
    20    14    15    2
    21     3     4   ar
    22     4     5   ar
    23     5     6   ar
    24    24    25    1
    25    25    26    1
    26    26    27    1
    27    26    28    1
    28    28    22    1
    29     6     1   ar
    30    15     7    1
    31    15    10    1
    32    20    17    1
@<TRIPOS>MOLECULE
*****
 28 32 0 0 0
SMALL
GASTEIGER

@<TRIPOS>ATOM
      1 C          63.3799   85.2165   14.6046 C.ar    1  UNL1        0.1352
      2 C          63.7444   86.5310   13.9809 C.ar    1  UNL1        0.0551
      3 C          63.8154   87.7683   14.8262 C.ar    1  UNL1        0.1052
      4 N          63.5218   87.6908   16.2951 N.ar    1  UNL1       -0.2223
      5 C          63.1574   86.3762   16.9188 C.ar    1  UNL1        0.2001
      6 N          63.0864   85.1390   16.0736 N.ar    1  UNL1       -0.2090
      7 C          64.1798   89.0828   14.2024 C.2     1  UNL1        0.1218
      8 N          65.0663   90.1304   14.8080 N.2     1  UNL1       -0.1467
      9 N          65.1561   91.2756   13.8434 N.2     1  UNL1       -0.1520
     10 C          64.3252   90.9358   12.6417 C.2     1  UNL1        0.0866
     11 C          64.0401   91.6853   11.3741 C.3     1  UNL1        0.0768
     12 C          63.1516   91.0796   10.3284 C.2     1  UNL1        0.0171
     13 C          62.5482   89.7243   10.5502 C.2     1  UNL1        0.1344
     14 C          62.8333   88.9748   11.8179 C.2     1  UNL1        0.0394
     15 C          63.7218   89.5806   12.8636 C.2     1  UNL1        0.0395
     16 O          61.6597   89.1186    9.5044 O.2     1  UNL1       -0.4829
     17 C          61.0973   87.7424    9.7036 C.3     1  UNL1        0.1334
     18 C          59.8107   88.0842   10.3947 C.3     1  UNL1        0.0436
     19 C          60.9817   86.2474    9.6627 C.3     1  UNL1        0.0436
     20 C          62.1887   86.9225    9.0816 C.3     1  UNL1        0.0436
     21 C          61.9421   80.2608   13.9928 C.3     1  UNL1        0.0339
     22 C          62.5901   81.5015   13.4535 C.3     1  UNL1        0.1350
     23 C          62.6610   82.7387   14.2987 C.3     1  UNL1        0.1216
     24 N          63.3090   83.9794   13.7594 N.pl3   1  UNL1       -0.2882
     25 C          63.8859   83.9829   12.3748 C.3     1  UNL1        0.1216
     26 C          63.8149   82.7458   11.5295 C.3     1  UNL1        0.1350
     27 C          64.3918   82.7493   10.1449 C.3     1  UNL1        0.0339
     28 O          63.1670   81.5050   12.0689 O.3     1  UNL1       -0.3552
@<TRIPOS>BOND
     1    22    21    1
     2    22    23    1
     3    23    24    1
     4    24     1    1
     5     1     2   ar
     6     2     3   ar
     7     3     7    1
     8     7     8    2
     9     8     9    1
    10     9    10    2
    11    10    11    1
    12    11    12    1
    13    12    13    2
    14    13    16    1
    15    16    17    1
    16    17    18    1
    17    17    19    1
    18    19    20    1
    19    13    14    1
    20    14    15    2
    21     3     4   ar
    22     4     5   ar
    23     5     6   ar
    24    24    25    1
    25    25    26    1
    26    26    27    1
    27    26    28    1
    28    28    22    1
    29     6     1   ar
    30    15     7    1
    31    15    10    1
    32    20    17    1
@<TRIPOS>MOLECULE
*****
 28 32 0 0 0
SMALL
GASTEIGER

@<TRIPOS>ATOM
      1 C          64.9778   92.1378   11.8331 C.ar    1  UNL1        0.1352
      2 C          64.0070   91.3120   11.0422 C.ar    1  UNL1        0.0551
      3 C          63.0066   90.4472   11.7506 C.ar    1  UNL1        0.1052
      4 N          62.9773   90.4084   13.2497 N.ar    1  UNL1       -0.2223
      5 C          63.9481   91.2342   14.0406 C.ar    1  UNL1        0.2001
      6 N          64.9484   92.0989   13.3323 N.ar    1  UNL1       -0.2090
      7 C          62.0358   89.6214   10.9597 C.2     1  UNL1        0.1218
      8 N          60.9415   90.1490   10.0798 N.2     1  UNL1       -0.1467
      9 N          60.2182   88.9767    9.4862 N.2     1  UNL1       -0.1520
     10 C          60.8655   87.7245    9.9992 C.2     1  UNL1        0.0866
     11 C          60.5771   86.2729    9.7547 C.3     1  UNL1        0.0768
     12 C          61.4121   85.2199   10.4209 C.2     1  UNL1        0.0171
     13 C          62.5354   85.6184   11.3316 C.2     1  UNL1        0.1344
     14 C          62.8238   87.0699   11.5761 C.2     1  UNL1        0.0394
     15 C          61.9888   88.1230   10.9099 C.2     1  UNL1        0.0395
     16 O          63.3704   84.5652   11.9978 O.2     1  UNL1       -0.4829
     17 C          63.3917   83.1684   11.4517 C.3     1  UNL1        0.1334
     18 C          62.5111   82.4833   12.4542 C.3     1  UNL1        0.0436
     19 C          63.7188   82.0094   10.5573 C.3     1  UNL1        0.0436
     20 C          64.2797   83.3684   10.2594 C.3     1  UNL1        0.0436
     21 C          69.2084   92.6087    8.8531 C.3     1  UNL1        0.0339
     22 C          68.0934   93.2379    9.6346 C.3     1  UNL1        0.1350
     23 C          67.0930   92.3733   10.3431 C.3     1  UNL1        0.1216
     24 N          65.9780   93.0025   11.1247 N.pl3   1  UNL1       -0.2882
     25 C          65.8633   94.4963   11.1978 C.3     1  UNL1        0.1216
     26 C          66.8635   95.3609   10.4893 C.3     1  UNL1        0.1350
     27 C          66.7488   96.8547   10.5624 C.3     1  UNL1        0.0339
     28 O          67.9786   94.7317    9.7077 O.3     1  UNL1       -0.3552
@<TRIPOS>BOND
     1    22    21    1
     2    22    23    1
     3    23    24    1
     4    24     1    1
     5     1     2   ar
     6     2     3   ar
     7     3     7    1
     8     7     8    2
     9     8     9    1
    10     9    10    2
    11    10    11    1
    12    11    12    1
    13    12    13    2
    14    13    16    1
    15    16    17    1
    16    17    18    1
    17    17    19    1
    18    19    20    1
    19    13    14    1
    20    14    15    2
    21     3     4   ar
    22     4     5   ar
    23     5     6   ar
    24    24    25    1
    25    25    26    1
    26    26    27    1
    27    26    28    1
    28    28    22    1
    29     6     1   ar
    30    15     7    1
    31    15    10    1
    32    20    17    1
@<TRIPOS>MOLECULE
*****
 28 32 0 0 0
SMALL
GASTEIGER

@<TRIPOS>ATOM
      1 C          64.5808   90.1915   15.0132 C.ar    1  UNL1        0.1352
      2 C          64.8301   88.7989   14.5148 C.ar    1  UNL1        0.0551
      3 C          64.0844   87.6432   15.1137 C.ar    1  UNL1        0.1052
      4 N          63.0895   87.8804   16.2109 N.ar    1  UNL1       -0.2223
      5 C          62.8402   89.2730   16.7092 C.ar    1  UNL1        0.2001
      6 N          63.5858   90.4286   16.1103 N.ar    1  UNL1       -0.2090
      7 C          64.3337   86.2505   14.6154 C.2     1  UNL1        0.1218
      8 N          65.2982   85.2633   15.2030 N.2     1  UNL1       -0.1467
      9 N          65.2228   84.0033   14.3927 N.2     1  UNL1       -0.1520
     10 C          64.2119   84.2117   13.3043 C.2     1  UNL1        0.0866
     11 C          63.7207   83.3163   12.2057 C.3     1  UNL1        0.0768
     12 C          62.6801   83.8098   11.2448 C.2     1  UNL1        0.0171
     13 C          62.1306   85.1987   11.3824 C.2     1  UNL1        0.1344
     14 C          62.6217   86.0941   12.4810 C.2     1  UNL1        0.0394
     15 C          63.6624   85.6007   13.4419 C.2     1  UNL1        0.0395
     16 O          61.0899   85.6922   10.4214 O.2     1  UNL1       -0.4829
     17 C          61.2798   87.0035    9.7184 C.3     1  UNL1        0.1334
     18 C          62.4169   86.6482    8.8070 C.3     1  UNL1        0.0436
     19 C          61.0749   88.4383    9.3319 C.3     1  UNL1        0.0436
     20 C          60.2086   87.8143   10.3857 C.3     1  UNL1        0.0436
     21 C          65.4808   93.3755   11.0066 C.3     1  UNL1        0.0339
     22 C          65.7765   92.9390   12.4109 C.3     1  UNL1        0.1350
     23 C          65.0308   91.7835   13.0099 C.3     1  UNL1        0.1216
     24 N          65.3265   91.3470   14.4143 N.pl3   1  UNL1       -0.2882
     25 C          66.3678   92.0661   15.2196 C.3     1  UNL1        0.1216
     26 C          67.1134   93.2216   14.6206 C.3     1  UNL1        0.1350
     27 C          68.1547   93.9407   15.4259 C.3     1  UNL1        0.0339
     28 O          66.8178   93.6581   13.2163 O.3     1  UNL1       -0.3552
@<TRIPOS>BOND
     1    22    21    1
     2    22    23    1
     3    23    24    1
     4    24     1    1
     5     1     2   ar
     6     2     3   ar
     7     3     7    1
     8     7     8    2
     9     8     9    1
    10     9    10    2
    11    10    11    1
    12    11    12    1
    13    12    13    2
    14    13    16    1
    15    16    17    1
    16    17    18    1
    17    17    19    1
    18    19    20    1
    19    13    14    1
    20    14    15    2
    21     3     4   ar
    22     4     5   ar
    23     5     6   ar
    24    24    25    1
    25    25    26    1
    26    26    27    1
    27    26    28    1
    28    28    22    1
    29     6     1   ar
    30    15     7    1
    31    15    10    1
    32    20    17    1
@<TRIPOS>MOLECULE
*****
 28 32 0 0 0
SMALL
GASTEIGER

@<TRIPOS>ATOM
      1 C          62.2689   89.5471   11.8725 C.ar    1  UNL1        0.1352
      2 C          62.7870   88.2712   11.2776 C.ar    1  UNL1        0.0551
      3 C          61.8740   87.3937   10.4735 C.ar    1  UNL1        0.1052
      4 N          60.4431   87.7920   10.2644 N.ar    1  UNL1       -0.2223
      5 C          59.9251   89.0678   10.8593 C.ar    1  UNL1        0.2001
      6 N          60.8380   89.9454   11.6633 N.ar    1  UNL1       -0.2090
      7 C          62.3920   86.1178    9.8786 C.2     1  UNL1        0.1218
      8 N          62.4159   85.7714    8.4194 N.2     1  UNL1       -0.1467
      9 N          63.0158   84.4039    8.2775 N.2     1  UNL1       -0.1520
     10 C          63.3626   83.9052    9.6490 C.2     1  UNL1        0.0866
     11 C          63.9796   82.6234   10.1246 C.3     1  UNL1        0.0768
     12 C          64.2111   82.4009   11.5898 C.2     1  UNL1        0.0171
     13 C          63.8256   83.4602   12.5794 C.2     1  UNL1        0.1344
     14 C          63.2086   84.7420   12.1037 C.2     1  UNL1        0.0394
     15 C          62.9771   84.9645   10.6385 C.2     1  UNL1        0.0395
     16 O          64.0572   83.2377   14.0446 O.2     1  UNL1       -0.4829
     17 C          63.8205   84.3531   15.0192 C.3     1  UNL1        0.1334
     18 C          62.4850   83.9430   15.5652 C.3     1  UNL1        0.0436
     19 C          64.0477   85.6109   15.8042 C.3     1  UNL1        0.0436
     20 C          65.0739   85.1506   14.8118 C.3     1  UNL1        0.0436
     21 C          64.0284   91.1889   16.4778 C.3     1  UNL1        0.0339
     22 C          64.0616   91.2455   14.9792 C.3     1  UNL1        0.1350
     23 C          63.1486   90.3680   14.1751 C.3     1  UNL1        0.1216
     24 N          63.1819   90.4245   12.6765 N.pl3   1  UNL1       -0.2882
     25 C          64.1281   91.3586   11.9820 C.3     1  UNL1        0.1216
     26 C          65.0410   92.2360   12.7861 C.3     1  UNL1        0.1350
     27 C          65.9872   93.1700   12.0917 C.3     1  UNL1        0.0339
     28 O          65.0078   92.1795   14.2847 O.3     1  UNL1       -0.3552
@<TRIPOS>BOND
     1    22    21    1
     2    22    23    1
     3    23    24    1
     4    24     1    1
     5     1     2   ar
     6     2     3   ar
     7     3     7    1
     8     7     8    2
     9     8     9    1
    10     9    10    2
    11    10    11    1
    12    11    12    1
    13    12    13    2
    14    13    16    1
    15    16    17    1
    16    17    18    1
    17    17    19    1
    18    19    20    1
    19    13    14    1
    20    14    15    2
    21     3     4   ar
    22     4     5   ar
    23     5     6   ar
    24    24    25    1
    25    25    26    1
    26    26    27    1
    27    26    28    1
    28    28    22    1
    29     6     1   ar
    30    15     7    1
    31    15    10    1
    32    20    17    1
@<TRIPOS>MOLECULE
*****
 28 32 0 0 0
SMALL
GASTEIGER

@<TRIPOS>ATOM
      1 C          63.7961   88.2427   14.8656 C.ar    1  UNL1        0.1352
      2 C          63.8595   86.8857   14.2296 C.ar    1  UNL1        0.0551
      3 C          63.5075   85.6658   15.0284 C.ar    1  UNL1        0.1052
      4 N          63.0920   85.8030   16.4631 N.ar    1  UNL1       -0.2223
      5 C          63.0286   87.1600   17.0992 C.ar    1  UNL1        0.2001
      6 N          63.3807   88.3798   16.3004 N.ar    1  UNL1       -0.2090
      7 C          63.5709   84.3088   14.3924 C.2     1  UNL1        0.1218
      8 N          63.6782   82.9997   15.1168 N.2     1  UNL1       -0.1467
      9 N          63.7117   81.9045   14.0924 N.2     1  UNL1       -0.1520
     10 C          63.6251   82.5367   12.7349 C.2     1  UNL1        0.0866
     11 C          63.6143   81.9513   11.3539 C.3     1  UNL1        0.0768
     12 C          63.5165   82.8519   10.1583 C.2     1  UNL1        0.0171
     13 C          63.4294   84.3378   10.3438 C.2     1  UNL1        0.1344
     14 C          63.4402   84.9232   11.7248 C.2     1  UNL1        0.0394
     15 C          63.5381   84.0227   12.9203 C.2     1  UNL1        0.0395
     16 O          63.3316   85.2384    9.1481 O.2     1  UNL1       -0.4829
     17 C          61.9931   85.5325    8.5383 C.3     1  UNL1        0.1334
     18 C          62.1818   84.9136    7.1850 C.3     1  UNL1        0.0436
     19 C          60.5891   86.0415    8.3984 C.3     1  UNL1        0.0436
     20 C          61.3395   86.2535    9.6798 C.3     1  UNL1        0.0436
     21 C          66.5035   92.6456   14.3323 C.3     1  UNL1        0.0339
     22 C          65.5019   91.6640   13.8001 C.3     1  UNL1        0.1350
     23 C          65.1497   90.4441   14.5990 C.3     1  UNL1        0.1216
     24 N          64.1481   89.4625   14.0668 N.pl3   1  UNL1       -0.2882
     25 C          63.4986   89.7007   12.7359 C.3     1  UNL1        0.1216
     26 C          63.8507   90.9205   11.9371 C.3     1  UNL1        0.1350
     27 C          63.2011   91.1587   10.6062 C.3     1  UNL1        0.0339
     28 O          64.8523   91.9022   12.4692 O.3     1  UNL1       -0.3552
@<TRIPOS>BOND
     1    22    21    1
     2    22    23    1
     3    23    24    1
     4    24     1    1
     5     1     2   ar
     6     2     3   ar
     7     3     7    1
     8     7     8    2
     9     8     9    1
    10     9    10    2
    11    10    11    1
    12    11    12    1
    13    12    13    2
    14    13    16    1
    15    16    17    1
    16    17    18    1
    17    17    19    1
    18    19    20    1
    19    13    14    1
    20    14    15    2
    21     3     4   ar
    22     4     5   ar
    23     5     6   ar
    24    24    25    1
    25    25    26    1
    26    26    27    1
    27    26    28    1
    28    28    22    1
    29     6     1   ar
    30    15     7    1
    31    15    10    1
    32    20    17    1
@<TRIPOS>MOLECULE
*****
 28 32 0 0 0
SMALL
GASTEIGER

@<TRIPOS>ATOM
      1 C          63.4536   86.3227   13.6451 C.ar    1  UNL1        0.1352
      2 C          63.4534   87.4176   12.6199 C.ar    1  UNL1        0.0551
      3 C          63.6122   88.8464   13.0483 C.ar    1  UNL1        0.1052
      4 N          63.7712   89.1801   14.5020 N.ar    1  UNL1       -0.2223
      5 C          63.7714   88.0852   15.5273 C.ar    1  UNL1        0.2001
      6 N          63.6126   86.6565   15.0988 N.ar    1  UNL1       -0.2090
      7 C          63.6119   89.9413   12.0230 C.2     1  UNL1        0.1218
      8 N          62.7876   89.9760   10.7703 N.2     1  UNL1       -0.1467
      9 N          63.1022   91.2499   10.0436 N.2     1  UNL1       -0.1520
     10 C          64.1210   92.0025   10.8471 C.2     1  UNL1        0.0866
     11 C          64.8024   93.3198   10.6229 C.3     1  UNL1        0.0768
     12 C          65.7989   93.8283   11.6220 C.2     1  UNL1        0.0171
     13 C          66.1140   93.0196   12.8454 C.2     1  UNL1        0.1344
     14 C          65.4325   91.7023   13.0697 C.2     1  UNL1        0.0394
     15 C          64.4360   91.1938   12.0705 C.2     1  UNL1        0.0395
     16 O          67.1105   93.5282   13.8446 O.2     1  UNL1       -0.4829
     17 C          67.8396   92.5649   14.7337 C.3     1  UNL1        0.1334
     18 C          68.6788   91.8535   13.7143 C.3     1  UNL1        0.0436
     19 C          68.2772   91.8488   15.9769 C.3     1  UNL1        0.0436
     20 C          67.2535   92.9419   16.0621 C.3     1  UNL1        0.0436
     21 C          64.3055   82.5415   10.1844 C.3     1  UNL1        0.0339
     22 C          63.7208   83.0034   11.4862 C.3     1  UNL1        0.1350
     23 C          63.8795   84.4322   11.9148 C.3     1  UNL1        0.1216
     24 N          63.2948   84.8941   13.2166 N.pl3   1  UNL1       -0.2882
     25 C          62.5513   83.9273   14.0899 C.3     1  UNL1        0.1216
     26 C          62.3925   82.4986   13.6613 C.3     1  UNL1        0.1350
     27 C          61.6490   81.5319   14.5345 C.3     1  UNL1        0.0339
     28 O          62.9773   82.0367   12.3594 O.3     1  UNL1       -0.3552
@<TRIPOS>BOND
     1    22    21    1
     2    22    23    1
     3    23    24    1
     4    24     1    1
     5     1     2   ar
     6     2     3   ar
     7     3     7    1
     8     7     8    2
     9     8     9    1
    10     9    10    2
    11    10    11    1
    12    11    12    1
    13    12    13    2
    14    13    16    1
    15    16    17    1
    16    17    18    1
    17    17    19    1
    18    19    20    1
    19    13    14    1
    20    14    15    2
    21     3     4   ar
    22     4     5   ar
    23     5     6   ar
    24    24    25    1
    25    25    26    1
    26    26    27    1
    27    26    28    1
    28    28    22    1
    29     6     1   ar
    30    15     7    1
    31    15    10    1
    32    20    17    1
@<TRIPOS>MOLECULE
*****
 28 32 0 0 0
SMALL
GASTEIGER

@<TRIPOS>ATOM
      1 C          64.8206   90.8278   13.4753 C.ar    1  UNL1        0.1352
      2 C          63.8313   90.6724   12.3584 C.ar    1  UNL1        0.0551
      3 C          63.0124   89.4203   12.2506 C.ar    1  UNL1        0.1052
      4 N          63.1828   88.3236   13.2596 N.ar    1  UNL1       -0.2223
      5 C          64.1720   88.4789   14.3764 C.ar    1  UNL1        0.2001
      6 N          64.9909   89.7310   14.4843 N.ar    1  UNL1       -0.2090
      7 C          62.0232   89.2649   11.1338 C.2     1  UNL1        0.1218
      8 N          61.0668   90.3147   10.6507 N.2     1  UNL1       -0.1467
      9 N          60.2692   89.7310    9.5223 N.2     1  UNL1       -0.1520
     10 C          60.7327   88.3206    9.3080 C.2     1  UNL1        0.0866
     11 C          60.3076   87.2614    8.3347 C.3     1  UNL1        0.0768
     12 C          60.9666   85.9142    8.3573 C.2     1  UNL1        0.0171
     13 C          62.0506   85.6261    9.3533 C.2     1  UNL1        0.1344
     14 C          62.4757   86.6852   10.3266 C.2     1  UNL1        0.0394
     15 C          61.8167   88.0325   10.3040 C.2     1  UNL1        0.0395
     16 O          62.7096   84.2787    9.3758 O.2     1  UNL1       -0.4829
     17 C          63.3360   83.7713   10.6408 C.3     1  UNL1        0.1334
     18 C          64.5382   83.0751   10.0751 C.3     1  UNL1        0.0436
     19 C          63.5449   83.5056   12.1022 C.3     1  UNL1        0.0436
     20 C          62.3513   84.2912   11.6458 C.3     1  UNL1        0.0436
     21 C          66.2716   95.4344   11.5587 C.3     1  UNL1        0.0339
     22 C          66.3649   94.3833   12.6247 C.3     1  UNL1        0.1350
     23 C          65.5461   93.1310   12.5170 C.3     1  UNL1        0.1216
     24 N          65.6394   92.0799   13.5830 N.pl3   1  UNL1       -0.2882
     25 C          66.5515   92.2809   14.7567 C.3     1  UNL1        0.1216
     26 C          67.3703   93.5331   14.8644 C.3     1  UNL1        0.1350
     27 C          68.2824   93.7341   16.0381 C.3     1  UNL1        0.0339
     28 O          67.2770   94.5843   13.7984 O.3     1  UNL1       -0.3552
@<TRIPOS>BOND
     1    22    21    1
     2    22    23    1
     3    23    24    1
     4    24     1    1
     5     1     2   ar
     6     2     3   ar
     7     3     7    1
     8     7     8    2
     9     8     9    1
    10     9    10    2
    11    10    11    1
    12    11    12    1
    13    12    13    2
    14    13    16    1
    15    16    17    1
    16    17    18    1
    17    17    19    1
    18    19    20    1
    19    13    14    1
    20    14    15    2
    21     3     4   ar
    22     4     5   ar
    23     5     6   ar
    24    24    25    1
    25    25    26    1
    26    26    27    1
    27    26    28    1
    28    28    22    1
    29     6     1   ar
    30    15     7    1
    31    15    10    1
    32    20    17    1
@<TRIPOS>MOLECULE
*****
 28 32 0 0 0
SMALL
GASTEIGER

@<TRIPOS>ATOM
      1 C          63.0877   84.7264   10.8981 C.ar    1  UNL1        0.1352
      2 C          62.9336   85.5584   12.1366 C.ar    1  UNL1        0.0551
      3 C          63.6673   85.1815   13.3895 C.ar    1  UNL1        0.1052
      4 N          64.5550   83.9726   13.4037 N.ar    1  UNL1       -0.2223
      5 C          64.7091   83.1405   12.1652 C.ar    1  UNL1        0.2001
      6 N          63.9755   83.5174   10.9124 N.ar    1  UNL1       -0.2090
      7 C          63.5132   86.0135   14.6280 C.2     1  UNL1        0.1218
      8 N          63.2100   85.4988   16.0039 N.2     1  UNL1       -0.1467
      9 N          63.1447   86.6736   16.9343 N.2     1  UNL1       -0.1520
     10 C          63.4075   87.9144   16.1334 C.2     1  UNL1        0.0866
     11 C          63.4688   89.3629   16.5179 C.3     1  UNL1        0.0768
     12 C          63.7579   90.4035   15.4771 C.2     1  UNL1        0.0171
     13 C          63.9857   89.9956   14.0517 C.2     1  UNL1        0.1344
     14 C          63.9244   88.5470   13.6672 C.2     1  UNL1        0.0394
     15 C          63.6353   87.5064   14.7081 C.2     1  UNL1        0.0395
     16 O          64.2748   91.0363   13.0108 O.2     1  UNL1       -0.4829
     17 C          63.5162   91.0339   11.7168 C.3     1  UNL1        0.1334
     18 C          62.2751   90.3077   12.1438 C.3     1  UNL1        0.0436
     19 C          63.1886   91.2836   10.2745 C.3     1  UNL1        0.0436
     20 C          64.4939   91.7592   10.8403 C.3     1  UNL1        0.0436
     21 C          62.5672   84.4600    5.7349 C.3     1  UNL1        0.0339
     22 C          62.0937   84.9702    7.0636 C.3     1  UNL1        0.1350
     23 C          62.8275   84.5932    8.3165 C.3     1  UNL1        0.1216
     24 N          62.3540   85.1034    9.6453 N.pl3   1  UNL1       -0.2882
     25 C          61.1468   85.9905    9.7212 C.3     1  UNL1        0.1216
     26 C          60.4131   86.3674    8.4683 C.3     1  UNL1        0.1350
     27 C          59.2060   87.2545    8.5442 C.3     1  UNL1        0.0339
     28 O          60.8866   85.8573    7.1395 O.3     1  UNL1       -0.3552
@<TRIPOS>BOND
     1    22    21    1
     2    22    23    1
     3    23    24    1
     4    24     1    1
     5     1     2   ar
     6     2     3   ar
     7     3     7    1
     8     7     8    2
     9     8     9    1
    10     9    10    2
    11    10    11    1
    12    11    12    1
    13    12    13    2
    14    13    16    1
    15    16    17    1
    16    17    18    1
    17    17    19    1
    18    19    20    1
    19    13    14    1
    20    14    15    2
    21     3     4   ar
    22     4     5   ar
    23     5     6   ar
    24    24    25    1
    25    25    26    1
    26    26    27    1
    27    26    28    1
    28    28    22    1
    29     6     1   ar
    30    15     7    1
    31    15    10    1
    32    20    17    1
