@<TRIPOS>MOLECULE
*****
 33 36 0 0 0
SMALL
GASTEIGER

@<TRIPOS>ATOM
      1 N          64.3408   91.6164   12.2473 N.ar    1  UNL1       -0.2570
      2 C          65.5946   92.4199   12.4270 C.ar    1  UNL1        0.1213
      3 C          66.1990   92.5717   13.7914 C.ar    1  UNL1        0.0935
      4 C          65.5496   91.9200   14.9762 C.ar    1  UNL1        0.2674
      5 O          66.1540   92.0719   16.3405 O.2     1  UNL1       -0.2667
      6 N          64.2957   91.1166   14.7965 N.ar    1  UNL1       -0.2428
      7 C          63.6913   90.9647   13.4320 C.ar    1  UNL1        0.3357
      8 O          62.4375   90.1613   13.2523 O.2     1  UNL1       -0.2461
      9 N          66.2440   93.0715   11.2423 N.pl3   1  UNL1       -0.2930
     10 C          65.8986   94.4859   10.8813 C.3     1  UNL1        0.0922
     11 C          66.5480   95.1376    9.6966 C.3     1  UNL1        0.0229
     12 C          67.5429   94.3749    8.8729 C.3     1  UNL1        0.0190
     13 C          67.8884   92.9606    9.2338 C.3     1  UNL1        0.0709
     14 N          68.8833   92.1980    8.4101 N.3     1  UNL1       -0.3208
     15 C          67.2390   92.3089   10.4186 C.3     1  UNL1        0.1075
     16 H          68.9963   91.2604    8.7956 H       1  UNL1        0.1189
     17 H          69.7807   92.6826    8.4262 H       1  UNL1        0.1189
     18 C          63.7364   91.4646   10.8829 C.3     1  UNL1        0.1879
     19 C          61.7529   87.5968    9.7183 C.3     1  UNL1        0.0900
     20 C          62.4141   88.8860   10.1065 C.1     1  UNL1       -0.0881
     21 C          63.0752   90.1753   10.4947 C.1     1  UNL1       -0.0655
     22 C          63.6463   90.4649   15.9812 C.3     1  UNL1        0.1592
     23 C          63.5557   88.9696   16.0586 C.ar    1  UNL1        0.0820
     24 C          62.9666   88.3158   17.2733 C.ar    1  UNL1        0.0167
     25 C          62.8760   86.8206   17.3507 C.ar    1  UNL1        0.0028
     26 C          63.3746   85.9791   16.2135 C.ar    1  UNL1        0.0178
     27 C          63.2840   84.4838   16.2909 C.ar    1  UNL1        0.0038
     28 C          63.7826   83.6424   15.1537 C.ar    1  UNL1        0.0297
     29 C          64.3717   84.2962   13.9390 C.ar    1  UNL1        0.1416
     30 F          64.8703   83.4547   12.8017 F       1  UNL1       -0.2041
     31 C          64.4623   85.7914   13.8615 C.ar    1  UNL1        0.0487
     32 C          63.9637   86.6329   14.9988 C.ar    1  UNL1        0.0832
     33 N          64.0543   88.1281   14.9214 N.ar    1  UNL1       -0.2477
@<TRIPOS>BOND
     1    19    20    1
     2    20    21    3
     3    21    18    1
     4    18     1    1
     5     1     2   ar
     6     2     9    1
     7     9    10    1
     8    10    11    1
     9    11    12    1
    10    12    13    1
    11    13    14    1
    12    13    15    1
    13     2     3   ar
    14     3     4   ar
    15     4     5    2
    16     4     6   ar
    17     6    22    1
    18    22    23    1
    19    23    24   ar
    20    24    25   ar
    21    25    26   ar
    22    26    27   ar
    23    27    28   ar
    24    28    29   ar
    25    29    30    1
    26    29    31   ar
    27    31    32   ar
    28    32    33   ar
    29     6     7   ar
    30     7     8    2
    31     7     1   ar
    32    15     9    1
    33    33    23   ar
    34    32    26   ar
    35    14    16    1
    36    14    17    1
@<TRIPOS>MOLECULE
*****
 33 36 0 0 0
SMALL
GASTEIGER

@<TRIPOS>ATOM
      1 N          64.8488   91.4943   12.5178 N.ar    1  UNL1       -0.2570
      2 C          65.4642   91.0502   13.8117 C.ar    1  UNL1        0.1213
      3 C          64.9663   89.8097   14.4923 C.ar    1  UNL1        0.0935
      4 C          63.8528   89.0133   13.8790 C.ar    1  UNL1        0.2674
      5 O          63.3548   87.7729   14.5596 O.2     1  UNL1       -0.2667
      6 N          63.2373   89.4574   12.5852 N.ar    1  UNL1       -0.2428
      7 C          63.7353   90.6980   11.9046 C.ar    1  UNL1        0.3357
      8 O          63.1199   91.1421   10.6108 O.2     1  UNL1       -0.2461
      9 N          66.5776   91.8465   14.4249 N.pl3   1  UNL1       -0.2930
     10 C          66.2920   92.7842   15.5604 C.3     1  UNL1        0.0922
     11 C          67.4054   93.5806   16.1736 C.3     1  UNL1        0.0229
     12 C          68.8045   93.4393   15.6514 C.3     1  UNL1        0.0190
     13 C          69.0901   92.5017   14.5160 C.3     1  UNL1        0.0709
     14 N          70.4892   92.3604   13.9938 N.3     1  UNL1       -0.3208
     15 C          67.9767   91.7053   13.9027 C.3     1  UNL1        0.1075
     16 H          70.4999   91.6865   13.2282 H       1  UNL1        0.1189
     17 H          71.1002   92.0341   14.7425 H       1  UNL1        0.1189
     18 C          65.3467   92.7348   11.8373 C.3     1  UNL1        0.1879
     19 C          68.7367   92.4773    8.8892 C.3     1  UNL1        0.0900
     20 C          67.6067   92.5631    9.8718 C.1     1  UNL1       -0.0881
     21 C          66.4768   92.6489   10.8545 C.1     1  UNL1       -0.0655
     22 C          62.1239   88.6611   11.9720 C.3     1  UNL1        0.1592
     23 C          62.4027   87.3072   11.3895 C.ar    1  UNL1        0.0820
     24 C          62.3224   87.0978    9.9064 C.ar    1  UNL1        0.0167
     25 C          62.6012   85.7439    9.3239 C.ar    1  UNL1        0.0028
     26 C          62.9602   84.5994   10.2246 C.ar    1  UNL1        0.0178
     27 C          63.2389   83.2455    9.6421 C.ar    1  UNL1        0.0038
     28 C          63.5980   82.1010   10.5428 C.ar    1  UNL1        0.0297
     29 C          63.6782   82.3104   12.0259 C.ar    1  UNL1        0.1416
     30 F          64.0372   81.1659   12.9266 F       1  UNL1       -0.2041
     31 C          63.3994   83.6643   12.6084 C.ar    1  UNL1        0.0487
     32 C          63.0404   84.8088   11.7077 C.ar    1  UNL1        0.0832
     33 N          62.7617   86.1627   12.2901 N.ar    1  UNL1       -0.2477
@<TRIPOS>BOND
     1    19    20    1
     2    20    21    3
     3    21    18    1
     4    18     1    1
     5     1     2   ar
     6     2     9    1
     7     9    10    1
     8    10    11    1
     9    11    12    1
    10    12    13    1
    11    13    14    1
    12    13    15    1
    13     2     3   ar
    14     3     4   ar
    15     4     5    2
    16     4     6   ar
    17     6    22    1
    18    22    23    1
    19    23    24   ar
    20    24    25   ar
    21    25    26   ar
    22    26    27   ar
    23    27    28   ar
    24    28    29   ar
    25    29    30    1
    26    29    31   ar
    27    31    32   ar
    28    32    33   ar
    29     6     7   ar
    30     7     8    2
    31     7     1   ar
    32    15     9    1
    33    33    23   ar
    34    32    26   ar
    35    14    16    1
    36    14    17    1
@<TRIPOS>MOLECULE
*****
 33 36 0 0 0
SMALL
GASTEIGER

@<TRIPOS>ATOM
      1 N          63.2718   86.1720   12.7779 N.ar    1  UNL1       -0.2570
      2 C          62.6743   85.2665   11.7420 C.ar    1  UNL1        0.1213
      3 C          61.9035   85.8467   10.5935 C.ar    1  UNL1        0.0935
      4 C          61.7301   87.3324   10.4808 C.ar    1  UNL1        0.2674
      5 O          60.9593   87.9126    9.3322 O.2     1  UNL1       -0.2667
      6 N          62.3276   88.2379   11.5167 N.ar    1  UNL1       -0.2428
      7 C          63.0984   87.6576   12.6653 C.ar    1  UNL1        0.3357
      8 O          63.6959   88.5631   13.7012 O.2     1  UNL1       -0.2461
      9 N          62.8476   83.7808   11.8546 N.pl3   1  UNL1       -0.2930
     10 C          63.4053   83.0012   10.7008 C.3     1  UNL1        0.0922
     11 C          63.5786   81.5155   10.8134 C.3     1  UNL1        0.0229
     12 C          63.1943   80.8094   12.0798 C.3     1  UNL1        0.0190
     13 C          62.6366   81.5890   13.2336 C.3     1  UNL1        0.0709
     14 N          62.2523   80.8829   14.5000 N.3     1  UNL1       -0.3208
     15 C          62.4633   83.0748   13.1210 C.3     1  UNL1        0.1075
     16 H          61.8946   81.5614   15.1724 H       1  UNL1        0.1189
     17 H          63.0707   80.4160   14.8907 H       1  UNL1        0.1189
     18 C          64.0426   85.5918   13.9265 C.3     1  UNL1        0.1879
     19 C          62.8069   86.5057   18.1558 C.3     1  UNL1        0.0900
     20 C          63.2188   86.2011   16.7461 C.1     1  UNL1       -0.0881
     21 C          63.6307   85.8964   15.3363 C.1     1  UNL1       -0.0655
     22 C          62.1543   89.7235   11.4041 C.3     1  UNL1        0.1592
     23 C          63.2904   90.6396   11.7506 C.ar    1  UNL1        0.0820
     24 C          63.9707   91.4315   10.6735 C.ar    1  UNL1        0.0167
     25 C          65.1068   92.3475   11.0200 C.ar    1  UNL1        0.0028
     26 C          65.5626   92.4717   12.4437 C.ar    1  UNL1        0.0178
     27 C          66.6988   93.3877   12.7902 C.ar    1  UNL1        0.0038
     28 C          67.1547   93.5119   14.2139 C.ar    1  UNL1        0.0297
     29 C          66.4743   92.7200   15.2910 C.ar    1  UNL1        0.1416
     30 F          66.9302   92.8442   16.7146 F       1  UNL1       -0.2041
     31 C          65.3382   91.8040   14.9444 C.ar    1  UNL1        0.0487
     32 C          64.8824   91.6798   13.5208 C.ar    1  UNL1        0.0832
     33 N          63.7463   90.7638   13.1743 N.ar    1  UNL1       -0.2477
@<TRIPOS>BOND
     1    19    20    1
     2    20    21    3
     3    21    18    1
     4    18     1    1
     5     1     2   ar
     6     2     9    1
     7     9    10    1
     8    10    11    1
     9    11    12    1
    10    12    13    1
    11    13    14    1
    12    13    15    1
    13     2     3   ar
    14     3     4   ar
    15     4     5    2
    16     4     6   ar
    17     6    22    1
    18    22    23    1
    19    23    24   ar
    20    24    25   ar
    21    25    26   ar
    22    26    27   ar
    23    27    28   ar
    24    28    29   ar
    25    29    30    1
    26    29    31   ar
    27    31    32   ar
    28    32    33   ar
    29     6     7   ar
    30     7     8    2
    31     7     1   ar
    32    15     9    1
    33    33    23   ar
    34    32    26   ar
    35    14    16    1
    36    14    17    1
@<TRIPOS>MOLECULE
*****
 33 36 0 0 0
SMALL
GASTEIGER

@<TRIPOS>ATOM
      1 N          65.4666   92.5241   12.5524 N.ar    1  UNL1       -0.2570
      2 C          65.2904   92.5097   11.0628 C.ar    1  UNL1        0.1213
      3 C          64.3319   91.5447   10.4303 C.ar    1  UNL1        0.0935
      4 C          63.5496   90.5941   11.2873 C.ar    1  UNL1        0.2674
      5 O          62.5912   89.6291   10.6548 O.2     1  UNL1       -0.2667
      6 N          63.7258   90.6085   12.7769 N.ar    1  UNL1       -0.2428
      7 C          64.6843   91.5736   13.4094 C.ar    1  UNL1        0.3357
      8 O          64.8605   91.5880   14.8989 O.2     1  UNL1       -0.2461
      9 N          66.0726   93.4602   10.2058 N.pl3   1  UNL1       -0.2930
     10 C          67.5180   93.1882    9.9106 C.3     1  UNL1        0.0922
     11 C          68.3002   94.1387    9.0536 C.3     1  UNL1        0.0229
     12 C          67.6372   95.3613    8.4917 C.3     1  UNL1        0.0190
     13 C          66.1919   95.6333    8.7868 C.3     1  UNL1        0.0709
     14 N          65.5289   96.8559    8.2250 N.3     1  UNL1       -0.3208
     15 C          65.4096   94.6828    9.6439 C.3     1  UNL1        0.1075
     16 H          64.5541   96.8818    8.5241 H       1  UNL1        0.1189
     17 H          65.5713   96.8278    7.2062 H       1  UNL1        0.1189
     18 C          66.4250   93.4891   13.1849 C.3     1  UNL1        0.1879
     19 C          69.1155   92.1255   16.5243 C.3     1  UNL1        0.0900
     20 C          68.2187   92.5800   15.4112 C.1     1  UNL1       -0.0881
     21 C          67.3219   93.0345   14.2981 C.1     1  UNL1       -0.0655
     22 C          62.9436   89.6580   13.6339 C.3     1  UNL1        0.1592
     23 C          63.3845   88.2303   13.7656 C.ar    1  UNL1        0.0820
     24 C          64.2684   87.8205   14.9062 C.ar    1  UNL1        0.0167
     25 C          64.7093   86.3929   15.0379 C.ar    1  UNL1        0.0028
     26 C          64.2664   85.3750   14.0290 C.ar    1  UNL1        0.0178
     27 C          64.7074   83.9473   14.1607 C.ar    1  UNL1        0.0038
     28 C          64.2644   82.9294   13.1519 C.ar    1  UNL1        0.0297
     29 C          63.3806   83.3393   12.0113 C.ar    1  UNL1        0.1416
     30 F          62.9377   82.3214   11.0024 F       1  UNL1       -0.2041
     31 C          62.9396   84.7669   11.8796 C.ar    1  UNL1        0.0487
     32 C          63.3826   85.7848   12.8885 C.ar    1  UNL1        0.0832
     33 N          62.9416   87.2124   12.7568 N.ar    1  UNL1       -0.2477
@<TRIPOS>BOND
     1    19    20    1
     2    20    21    3
     3    21    18    1
     4    18     1    1
     5     1     2   ar
     6     2     9    1
     7     9    10    1
     8    10    11    1
     9    11    12    1
    10    12    13    1
    11    13    14    1
    12    13    15    1
    13     2     3   ar
    14     3     4   ar
    15     4     5    2
    16     4     6   ar
    17     6    22    1
    18    22    23    1
    19    23    24   ar
    20    24    25   ar
    21    25    26   ar
    22    26    27   ar
    23    27    28   ar
    24    28    29   ar
    25    29    30    1
    26    29    31   ar
    27    31    32   ar
    28    32    33   ar
    29     6     7   ar
    30     7     8    2
    31     7     1   ar
    32    15     9    1
    33    33    23   ar
    34    32    26   ar
    35    14    16    1
    36    14    17    1
@<TRIPOS>MOLECULE
*****
 33 36 0 0 0
SMALL
GASTEIGER

@<TRIPOS>ATOM
      1 N          65.8111   92.5935   13.9208 N.ar    1  UNL1       -0.2570
      2 C          65.3722   92.3651   12.5047 C.ar    1  UNL1        0.1213
      3 C          64.2371   91.4289   12.2131 C.ar    1  UNL1        0.0935
      4 C          63.5408   90.7211   13.3375 C.ar    1  UNL1        0.2674
      5 O          62.4058   89.7849   13.0458 O.2     1  UNL1       -0.2667
      6 N          63.9797   90.9495   14.7535 N.ar    1  UNL1       -0.2428
      7 C          65.1148   91.8857   15.0452 C.ar    1  UNL1        0.3357
      8 O          65.5537   92.1141   16.4613 O.2     1  UNL1       -0.2461
      9 N          66.0684   93.0729   11.3804 N.pl3   1  UNL1       -0.2930
     10 C          65.7789   94.5199   11.1115 C.3     1  UNL1        0.0922
     11 C          66.4752   95.2277    9.9871 C.3     1  UNL1        0.0229
     12 C          67.4609   94.4885    9.1316 C.3     1  UNL1        0.0190
     13 C          67.7504   93.0415    9.4004 C.3     1  UNL1        0.0709
     14 N          68.7361   92.3023    8.5449 N.3     1  UNL1       -0.3208
     15 C          67.0541   92.3336   10.5248 C.3     1  UNL1        0.1075
     16 H          68.8090   91.3371    8.8667 H       1  UNL1        0.1189
     17 H          69.6489   92.7527    8.6113 H       1  UNL1        0.1189
     18 C          66.9461   93.5296   14.2125 C.3     1  UNL1        0.1879
     19 C          70.2836   92.2382   16.9407 C.3     1  UNL1        0.0900
     20 C          69.1711   92.6687   16.0313 C.1     1  UNL1       -0.0881
     21 C          68.0587   93.0991   15.1220 C.1     1  UNL1       -0.0655
     22 C          63.2835   90.2417   15.8779 C.3     1  UNL1        0.1592
     23 C          63.3443   88.7460   15.9746 C.ar    1  UNL1        0.0820
     24 C          62.9128   88.0578   17.2356 C.ar    1  UNL1        0.0167
     25 C          62.9736   86.5622   17.3323 C.ar    1  UNL1        0.0028
     26 C          63.4659   85.7547   16.1679 C.ar    1  UNL1        0.0178
     27 C          63.5266   84.2590   16.2646 C.ar    1  UNL1        0.0038
     28 C          64.0189   83.4516   15.1002 C.ar    1  UNL1        0.0297
     29 C          64.4503   84.1399   13.8391 C.ar    1  UNL1        0.1416
     30 F          64.9425   83.3325   12.6748 F       1  UNL1       -0.2041
     31 C          64.3895   85.6355   13.7425 C.ar    1  UNL1        0.0487
     32 C          63.8973   86.4429   14.9069 C.ar    1  UNL1        0.0832
     33 N          63.8365   87.9385   14.8102 N.ar    1  UNL1       -0.2477
@<TRIPOS>BOND
     1    19    20    1
     2    20    21    3
     3    21    18    1
     4    18     1    1
     5     1     2   ar
     6     2     9    1
     7     9    10    1
     8    10    11    1
     9    11    12    1
    10    12    13    1
    11    13    14    1
    12    13    15    1
    13     2     3   ar
    14     3     4   ar
    15     4     5    2
    16     4     6   ar
    17     6    22    1
    18    22    23    1
    19    23    24   ar
    20    24    25   ar
    21    25    26   ar
    22    26    27   ar
    23    27    28   ar
    24    28    29   ar
    25    29    30    1
    26    29    31   ar
    27    31    32   ar
    28    32    33   ar
    29     6     7   ar
    30     7     8    2
    31     7     1   ar
    32    15     9    1
    33    33    23   ar
    34    32    26   ar
    35    14    16    1
    36    14    17    1
@<TRIPOS>MOLECULE
*****
 33 36 0 0 0
SMALL
GASTEIGER

@<TRIPOS>ATOM
      1 N          64.9487   91.7124   12.0059 N.ar    1  UNL1       -0.2570
      2 C          65.4417   91.4914   13.4052 C.ar    1  UNL1        0.1213
      3 C          64.5582   90.8201   14.4144 C.ar    1  UNL1        0.0935
      4 C          63.1816   90.3696   14.0244 C.ar    1  UNL1        0.2674
      5 O          62.2981   89.6983   15.0337 O.2     1  UNL1       -0.2667
      6 N          62.6885   90.5906   12.6251 N.ar    1  UNL1       -0.2428
      7 C          63.5721   91.2620   11.6158 C.ar    1  UNL1        0.3357
      8 O          63.0790   91.4830   10.2165 O.2     1  UNL1       -0.2461
      9 N          66.8183   91.9418   13.7952 N.pl3   1  UNL1       -0.2930
     10 C          68.0151   91.4242   13.0535 C.3     1  UNL1        0.0922
     11 C          69.3916   91.8746   13.4436 C.3     1  UNL1        0.0229
     12 C          69.5715   92.8425   14.5752 C.3     1  UNL1        0.0190
     13 C          68.3749   93.3601   15.3169 C.3     1  UNL1        0.0709
     14 N          68.5548   94.3281   16.4486 N.3     1  UNL1       -0.3208
     15 C          66.9982   92.9097   14.9269 C.3     1  UNL1        0.1075
     16 H          67.6431   94.5723   16.8352 H       1  UNL1        0.1189
     17 H          69.0153   95.1709   16.1051 H       1  UNL1        0.1189
     18 C          65.8322   92.3837   10.9966 C.3     1  UNL1        0.1879
     19 C          66.3270   96.8560   11.0607 C.3     1  UNL1        0.0900
     20 C          66.1620   95.3652   11.0393 C.1     1  UNL1       -0.0881
     21 C          65.9971   93.8745   11.0180 C.1     1  UNL1       -0.0655
     22 C          61.3119   90.1402   12.2351 C.3     1  UNL1        0.1592
     23 C          61.1276   89.2168   11.0674 C.ar    1  UNL1        0.0820
     24 C          60.0351   89.4746   10.0725 C.ar    1  UNL1        0.0167
     25 C          59.8508   88.5512    8.9050 C.ar    1  UNL1        0.0028
     26 C          60.7591   87.3700    8.7322 C.ar    1  UNL1        0.0178
     27 C          60.5748   86.4466    7.5646 C.ar    1  UNL1        0.0038
     28 C          61.4831   85.2654    7.3919 C.ar    1  UNL1        0.0297
     29 C          62.5757   85.0076    8.3868 C.ar    1  UNL1        0.1416
     30 F          63.4840   83.8264    8.2141 F       1  UNL1       -0.2041
     31 C          62.7599   85.9310    9.5544 C.ar    1  UNL1        0.0487
     32 C          61.8517   87.1122    9.7271 C.ar    1  UNL1        0.0832
     33 N          62.0359   88.0356   10.8947 N.ar    1  UNL1       -0.2477
@<TRIPOS>BOND
     1    19    20    1
     2    20    21    3
     3    21    18    1
     4    18     1    1
     5     1     2   ar
     6     2     9    1
     7     9    10    1
     8    10    11    1
     9    11    12    1
    10    12    13    1
    11    13    14    1
    12    13    15    1
    13     2     3   ar
    14     3     4   ar
    15     4     5    2
    16     4     6   ar
    17     6    22    1
    18    22    23    1
    19    23    24   ar
    20    24    25   ar
    21    25    26   ar
    22    26    27   ar
    23    27    28   ar
    24    28    29   ar
    25    29    30    1
    26    29    31   ar
    27    31    32   ar
    28    32    33   ar
    29     6     7   ar
    30     7     8    2
    31     7     1   ar
    32    15     9    1
    33    33    23   ar
    34    32    26   ar
    35    14    16    1
    36    14    17    1
@<TRIPOS>MOLECULE
*****
 33 36 0 0 0
SMALL
GASTEIGER

@<TRIPOS>ATOM
      1 N          64.7292   91.0831   12.1735 N.ar    1  UNL1       -0.2570
      2 C          64.5457   91.9221   10.9437 C.ar    1  UNL1        0.1213
      3 C          63.4545   91.5943    9.9681 C.ar    1  UNL1        0.0935
      4 C          62.5467   90.4274   10.2223 C.ar    1  UNL1        0.2674
      5 O          61.4555   90.0996    9.2468 O.2     1  UNL1       -0.2667
      6 N          62.7302   89.5885   11.4521 N.ar    1  UNL1       -0.2428
      7 C          63.8215   89.9163   12.4277 C.ar    1  UNL1        0.3357
      8 O          64.0050   89.0774   13.6576 O.2     1  UNL1       -0.2461
      9 N          65.4533   93.0888   10.6894 N.pl3   1  UNL1       -0.2930
     10 C          66.5914   92.9567    9.7211 C.3     1  UNL1        0.0922
     11 C          67.4991   94.1235    9.4669 C.3     1  UNL1        0.0229
     12 C          67.2688   95.4224   10.1808 C.3     1  UNL1        0.0190
     13 C          66.1308   95.5546   11.1490 C.3     1  UNL1        0.0709
     14 N          65.9005   96.8535   11.8630 N.3     1  UNL1       -0.3208
     15 C          65.2230   94.3878   11.4034 C.3     1  UNL1        0.1075
     16 H          65.0911   96.7650   12.4773 H       1  UNL1        0.1189
     17 H          65.7297   97.5914   11.1798 H       1  UNL1        0.1189
     18 C          65.8204   91.4109   13.1490 C.3     1  UNL1        0.1879
     19 C          64.7913   92.5193   17.3873 C.3     1  UNL1        0.0900
     20 C          65.1343   92.1498   15.9745 C.1     1  UNL1       -0.0881
     21 C          65.4773   91.7804   14.5618 C.1     1  UNL1       -0.0655
     22 C          61.8225   88.4217   11.7064 C.3     1  UNL1        0.1592
     23 C          62.2470   87.0399   11.3055 C.ar    1  UNL1        0.0820
     24 C          62.3351   86.6741    9.8535 C.ar    1  UNL1        0.0167
     25 C          62.7595   85.2924    9.4526 C.ar    1  UNL1        0.0028
     26 C          63.0958   84.2765   10.5037 C.ar    1  UNL1        0.0178
     27 C          63.5202   82.8948   10.1028 C.ar    1  UNL1        0.0038
     28 C          63.8564   81.8789   11.1539 C.ar    1  UNL1        0.0297
     29 C          63.7682   82.2447   12.6060 C.ar    1  UNL1        0.1416
     30 F          64.1045   81.2288   13.6571 F       1  UNL1       -0.2041
     31 C          63.3438   83.6264   13.0068 C.ar    1  UNL1        0.0487
     32 C          63.0076   84.6423   11.9557 C.ar    1  UNL1        0.0832
     33 N          62.5832   86.0240   12.3566 N.ar    1  UNL1       -0.2477
@<TRIPOS>BOND
     1    19    20    1
     2    20    21    3
     3    21    18    1
     4    18     1    1
     5     1     2   ar
     6     2     9    1
     7     9    10    1
     8    10    11    1
     9    11    12    1
    10    12    13    1
    11    13    14    1
    12    13    15    1
    13     2     3   ar
    14     3     4   ar
    15     4     5    2
    16     4     6   ar
    17     6    22    1
    18    22    23    1
    19    23    24   ar
    20    24    25   ar
    21    25    26   ar
    22    26    27   ar
    23    27    28   ar
    24    28    29   ar
    25    29    30    1
    26    29    31   ar
    27    31    32   ar
    28    32    33   ar
    29     6     7   ar
    30     7     8    2
    31     7     1   ar
    32    15     9    1
    33    33    23   ar
    34    32    26   ar
    35    14    16    1
    36    14    17    1
@<TRIPOS>MOLECULE
*****
 33 36 0 0 0
SMALL
GASTEIGER

@<TRIPOS>ATOM
      1 N          62.3511   86.4324   11.4248 N.ar    1  UNL1       -0.2570
      2 C          63.0591   85.5943   12.4477 C.ar    1  UNL1        0.1213
      3 C          63.8109   86.2525   13.5664 C.ar    1  UNL1        0.0935
      4 C          63.8547   87.7488   13.6622 C.ar    1  UNL1        0.2674
      5 O          64.6065   88.4070   14.7809 O.2     1  UNL1       -0.2667
      6 N          63.1467   88.5869   12.6393 N.ar    1  UNL1       -0.2428
      7 C          62.3949   87.9286   11.5206 C.ar    1  UNL1        0.3357
      8 O          61.6869   88.7667   10.4977 O.2     1  UNL1       -0.2461
      9 N          63.0153   84.0980   12.3519 N.pl3   1  UNL1       -0.2930
     10 C          63.5180   83.4105   11.1171 C.3     1  UNL1        0.0922
     11 C          63.4742   81.9142   11.0213 C.3     1  UNL1        0.0229
     12 C          62.9277   81.1054   12.1603 C.3     1  UNL1        0.0190
     13 C          62.4250   81.7929   13.3950 C.3     1  UNL1        0.0709
     14 N          61.8785   80.9841   14.5340 N.3     1  UNL1       -0.3208
     15 C          62.4688   83.2892   13.4909 C.3     1  UNL1        0.1075
     16 H          61.5847   81.6091   15.2846 H       1  UNL1        0.1189
     17 H          62.6010   80.3529   14.8802 H       1  UNL1        0.1189
     18 C          61.5993   85.7742   10.3061 C.3     1  UNL1        0.1879
     19 C          59.1559   88.2660    7.4652 C.3     1  UNL1        0.0900
     20 C          59.9703   87.4354    8.4121 C.1     1  UNL1       -0.0881
     21 C          60.7848   86.6048    9.3591 C.1     1  UNL1       -0.0655
     22 C          63.1905   90.0832   12.7351 C.3     1  UNL1        0.1592
     23 C          64.1831   90.7479   13.6423 C.ar    1  UNL1        0.0820
     24 C          63.7665   91.1909   15.0135 C.ar    1  UNL1        0.0167
     25 C          64.7591   91.8556   15.9207 C.ar    1  UNL1        0.0028
     26 C          66.1681   92.0773   15.4566 C.ar    1  UNL1        0.0178
     27 C          67.1607   92.7421   16.3639 C.ar    1  UNL1        0.0038
     28 C          68.5698   92.9638   15.8998 C.ar    1  UNL1        0.0297
     29 C          68.9863   92.5208   14.5286 C.ar    1  UNL1        0.1416
     30 F          70.3954   92.7425   14.0645 F       1  UNL1       -0.2041
     31 C          67.9938   91.8561   13.6214 C.ar    1  UNL1        0.0487
     32 C          66.5847   91.6343   14.0855 C.ar    1  UNL1        0.0832
     33 N          65.5921   90.9696   13.1783 N.ar    1  UNL1       -0.2477
@<TRIPOS>BOND
     1    19    20    1
     2    20    21    3
     3    21    18    1
     4    18     1    1
     5     1     2   ar
     6     2     9    1
     7     9    10    1
     8    10    11    1
     9    11    12    1
    10    12    13    1
    11    13    14    1
    12    13    15    1
    13     2     3   ar
    14     3     4   ar
    15     4     5    2
    16     4     6   ar
    17     6    22    1
    18    22    23    1
    19    23    24   ar
    20    24    25   ar
    21    25    26   ar
    22    26    27   ar
    23    27    28   ar
    24    28    29   ar
    25    29    30    1
    26    29    31   ar
    27    31    32   ar
    28    32    33   ar
    29     6     7   ar
    30     7     8    2
    31     7     1   ar
    32    15     9    1
    33    33    23   ar
    34    32    26   ar
    35    14    16    1
    36    14    17    1
@<TRIPOS>MOLECULE
*****
 33 36 0 0 0
SMALL
GASTEIGER

@<TRIPOS>ATOM
      1 N          63.9812   89.5537   13.0030 N.ar    1  UNL1       -0.2570
      2 C          64.1018   90.8306   12.2253 C.ar    1  UNL1        0.1213
      3 C          63.3733   90.9876   10.9235 C.ar    1  UNL1        0.0935
      4 C          62.5242   89.8676   10.3993 C.ar    1  UNL1        0.2674
      5 O          61.7958   90.0246    9.0976 O.2     1  UNL1       -0.2667
      6 N          62.4036   88.5906   11.1770 N.ar    1  UNL1       -0.2428
      7 C          63.1321   88.4337   12.4789 C.ar    1  UNL1        0.3357
      8 O          63.0115   87.1567   13.2566 O.2     1  UNL1       -0.2461
      9 N          64.9508   91.9506   12.7493 N.pl3   1  UNL1       -0.2930
     10 C          65.3497   91.9762   14.1952 C.3     1  UNL1        0.0922
     11 C          66.1987   93.0962   14.7193 C.3     1  UNL1        0.0229
     12 C          66.6490   94.1906   13.7976 C.3     1  UNL1        0.0190
     13 C          66.2503   94.1650   12.3518 C.3     1  UNL1        0.0709
     14 N          66.7006   95.2594   11.4301 N.3     1  UNL1       -0.3208
     15 C          65.4011   93.0450   11.8277 C.3     1  UNL1        0.1075
     16 H          66.3407   95.0835   10.4921 H       1  UNL1        0.1189
     17 H          67.7199   95.2841   11.4042 H       1  UNL1        0.1189
     18 C          64.7096   89.3967   14.3048 C.3     1  UNL1        0.1879
     19 C          62.7148   87.3207   17.7632 C.3     1  UNL1        0.0900
     20 C          63.3797   88.0127   16.6104 C.1     1  UNL1       -0.0881
     21 C          64.0446   88.7046   15.4576 C.1     1  UNL1       -0.0655
     22 C          61.5545   87.4707   10.6530 C.3     1  UNL1        0.1592
     23 C          62.1194   86.0847   10.5530 C.ar    1  UNL1        0.0820
     24 C          62.7722   85.6308    9.2811 C.ar    1  UNL1        0.0167
     25 C          63.3371   84.2448    9.1812 C.ar    1  UNL1        0.0028
     26 C          63.2492   83.3128   10.3532 C.ar    1  UNL1        0.0178
     27 C          63.8141   81.9268   10.2532 C.ar    1  UNL1        0.0038
     28 C          63.7262   80.9947   11.4252 C.ar    1  UNL1        0.0297
     29 C          63.0734   81.4487   12.6972 C.ar    1  UNL1        0.1416
     30 F          62.9855   80.5167   13.8692 F       1  UNL1       -0.2041
     31 C          62.5085   82.8347   12.7971 C.ar    1  UNL1        0.0487
     32 C          62.5964   83.7667   11.6251 C.ar    1  UNL1        0.0832
     33 N          62.0316   85.1526   11.7250 N.ar    1  UNL1       -0.2477
@<TRIPOS>BOND
     1    19    20    1
     2    20    21    3
     3    21    18    1
     4    18     1    1
     5     1     2   ar
     6     2     9    1
     7     9    10    1
     8    10    11    1
     9    11    12    1
    10    12    13    1
    11    13    14    1
    12    13    15    1
    13     2     3   ar
    14     3     4   ar
    15     4     5    2
    16     4     6   ar
    17     6    22    1
    18    22    23    1
    19    23    24   ar
    20    24    25   ar
    21    25    26   ar
    22    26    27   ar
    23    27    28   ar
    24    28    29   ar
    25    29    30    1
    26    29    31   ar
    27    31    32   ar
    28    32    33   ar
    29     6     7   ar
    30     7     8    2
    31     7     1   ar
    32    15     9    1
    33    33    23   ar
    34    32    26   ar
    35    14    16    1
    36    14    17    1
