@<TRIPOS>MOLECULE
*****
 33 35 0 0 0
SMALL
GASTEIGER

@<TRIPOS>ATOM
      1 S          63.4181   90.8024   12.2961 S.O2    1  UNL1        0.0736
      2 O          63.1000   90.6831   13.7571 O.2     1  UNL1       -0.1499
      3 O          63.7363   90.9217   10.8351 O.2     1  UNL1       -0.1499
      4 C          64.5884   91.6820   12.6228 C.ar    1  UNL1        0.1251
      5 C          65.0320   92.7326   11.6484 C.ar    1  UNL1        0.0240
      6 C          66.2023   93.6123   11.9751 C.ar    1  UNL1        0.0727
      7 C          66.9289   93.4414   13.2761 C.ar    1  UNL1        0.0078
      8 C          66.4853   92.3908   14.2505 C.ar    1  UNL1        0.0727
      9 C          65.3150   91.5111   13.9239 C.ar    1  UNL1        0.0240
     10 C          66.6459   94.6629   11.0006 C.3     1  UNL1        0.4186
     11 F          67.0895   95.7134   10.0262 F       1  UNL1       -0.1659
     12 F          67.1362   93.5931   10.0705 F       1  UNL1       -0.1659
     13 F          66.1556   95.7326   11.9308 F       1  UNL1       -0.1659
     14 C          67.2119   92.2199   15.5517 C.3     1  UNL1        0.4186
     15 F          67.9384   92.0489   16.8528 F       1  UNL1       -0.1659
     16 F          65.9445   92.5140   16.2980 F       1  UNL1       -0.1659
     17 F          68.4793   91.9257   14.8053 F       1  UNL1       -0.1659
     18 N          62.2479   89.9227   11.9695 N.pl3   1  UNL1       -0.2150
     19 H          61.3626   90.3215   11.8069 H       1  UNL1        0.1737
     20 C          62.7838   85.4610   11.7326 C.ar    1  UNL1        0.0002
     21 C          63.4994   86.2473   12.7908 C.ar    1  UNL1        0.0013
     22 C          63.3208   87.7345   12.8698 C.ar    1  UNL1        0.0159
     23 C          62.4265   88.4355   11.8905 C.ar    1  UNL1        0.0648
     24 C          61.7109   87.6493   10.8323 C.ar    1  UNL1        0.0159
     25 C          61.8895   86.1620   10.7534 C.ar    1  UNL1        0.0013
     26 C          62.6243   81.6096   12.6767 C.ar    1  UNL1        0.0590
     27 C          62.4457   83.0968   12.7555 C.ar    1  UNL1        0.0147
     28 C          62.9624   83.9738   11.6537 C.ar    1  UNL1        0.0027
     29 C          63.6577   83.3635   10.4730 C.ar    1  UNL1        0.0207
     30 C          63.8363   81.8763   10.3942 C.ar    1  UNL1        0.0984
     31 N          63.3196   80.9994   11.4960 N.ar    1  UNL1       -0.2482
     32 C          60.6464   80.7363   14.1172 C.3     1  UNL1        0.0067
     33 C          62.1077   80.7327   13.7785 C.3     1  UNL1        0.0458
@<TRIPOS>BOND
     1    32    33    1
     2    33    26    1
     3    26    27   ar
     4    27    28   ar
     5    28    20    1
     6    20    21   ar
     7    21    22   ar
     8    22    23   ar
     9    23    18    1
    10    18     1    1
    11     1     2    2
    12     1     3    2
    13     1     4    1
    14     4     5   ar
    15     5     6   ar
    16     6    10    1
    17    10    11    1
    18    10    12    1
    19    10    13    1
    20     6     7   ar
    21     7     8   ar
    22     8    14    1
    23    14    15    1
    24    14    16    1
    25    14    17    1
    26     8     9   ar
    27    23    24   ar
    28    24    25   ar
    29    28    29   ar
    30    29    30   ar
    31    30    31   ar
    32    31    26   ar
    33    25    20   ar
    34     9     4   ar
    35    18    19    1
@<TRIPOS>MOLECULE
*****
 33 35 0 0 0
SMALL
GASTEIGER

@<TRIPOS>ATOM
      1 S          63.4198   90.7913   12.3134 S.O2    1  UNL1        0.0736
      2 O          63.1128   90.6527   13.7751 O.2     1  UNL1       -0.1499
      3 O          63.7269   90.9299   10.8517 O.2     1  UNL1       -0.1499
      4 C          64.5894   91.6709   12.6425 C.ar    1  UNL1        0.1251
      5 C          65.3143   91.4989   13.9443 C.ar    1  UNL1        0.0240
      6 C          66.4839   92.3785   14.2734 C.ar    1  UNL1        0.0727
      7 C          66.9286   93.4302   13.3007 C.ar    1  UNL1        0.0078
      8 C          66.2036   93.6022   11.9989 C.ar    1  UNL1        0.0727
      9 C          65.0340   92.7226   11.6698 C.ar    1  UNL1        0.0240
     10 C          67.2089   92.2065   15.5753 C.3     1  UNL1        0.4186
     11 F          67.9338   92.0344   16.8772 F       1  UNL1       -0.1659
     12 F          68.3931   91.6494   14.8424 F       1  UNL1       -0.1659
     13 F          66.0247   92.7636   16.3083 F       1  UNL1       -0.1659
     14 C          66.6482   94.6540   11.0261 C.3     1  UNL1        0.4186
     15 F          67.0929   95.7056   10.0533 F       1  UNL1       -0.1659
     16 F          67.2462   93.5921   10.1515 F       1  UNL1       -0.1659
     17 F          66.0503   95.7158   11.9007 F       1  UNL1       -0.1659
     18 N          62.2502   89.9117   11.9843 N.pl3   1  UNL1       -0.2150
     19 H          61.3640   90.3100   11.8254 H       1  UNL1        0.1737
     20 C          62.7921   85.4521   11.7232 C.ar    1  UNL1        0.0002
     21 C          63.5007   86.2325   12.7904 C.ar    1  UNL1        0.0013
     22 C          63.3201   87.7190   12.8774 C.ar    1  UNL1        0.0159
     23 C          62.4308   88.4252   11.8972 C.ar    1  UNL1        0.0648
     24 C          61.7222   87.6447   10.8301 C.ar    1  UNL1        0.0159
     25 C          61.9029   86.1581   10.7431 C.ar    1  UNL1        0.0013
     26 C          62.6433   81.5958   12.6493 C.ar    1  UNL1        0.0590
     27 C          62.4627   83.0824   12.7362 C.ar    1  UNL1        0.0147
     28 C          62.9727   83.9655   11.6362 C.ar    1  UNL1        0.0027
     29 C          63.6634   83.3621   10.4493 C.ar    1  UNL1        0.0207
     30 C          63.8440   81.8755   10.3623 C.ar    1  UNL1        0.0984
     31 N          63.3339   80.9924   11.4623 N.ar    1  UNL1       -0.2482
     32 C          60.6822   80.7480   14.1275 C.3     1  UNL1        0.0067
     33 C          62.1333   80.7127   13.7493 C.3     1  UNL1        0.0458
@<TRIPOS>BOND
     1    32    33    1
     2    33    26    1
     3    26    27   ar
     4    27    28   ar
     5    28    20    1
     6    20    21   ar
     7    21    22   ar
     8    22    23   ar
     9    23    18    1
    10    18     1    1
    11     1     2    2
    12     1     3    2
    13     1     4    1
    14     4     5   ar
    15     5     6   ar
    16     6    10    1
    17    10    11    1
    18    10    12    1
    19    10    13    1
    20     6     7   ar
    21     7     8   ar
    22     8    14    1
    23    14    15    1
    24    14    16    1
    25    14    17    1
    26     8     9   ar
    27    23    24   ar
    28    24    25   ar
    29    28    29   ar
    30    29    30   ar
    31    30    31   ar
    32    31    26   ar
    33    25    20   ar
    34     9     4   ar
    35    18    19    1
@<TRIPOS>MOLECULE
*****
 33 35 0 0 0
SMALL
GASTEIGER

@<TRIPOS>ATOM
      1 S          62.7757   84.5521   15.3814 S.O2    1  UNL1        0.0736
      2 O          64.2303   84.2249   15.5457 O.2     1  UNL1       -0.1499
      3 O          61.3210   84.8794   15.2171 O.2     1  UNL1       -0.1499
      4 C          62.6357   83.4333   14.3921 C.ar    1  UNL1        0.1251
      5 C          63.4188   83.4608   13.1130 C.ar    1  UNL1        0.0240
      6 C          63.2788   82.3420   12.1238 C.ar    1  UNL1        0.0727
      7 C          62.3558   81.1957   12.4135 C.ar    1  UNL1        0.0078
      8 C          61.5727   81.1683   13.6925 C.ar    1  UNL1        0.0727
      9 C          61.7126   82.2871   14.6818 C.ar    1  UNL1        0.0240
     10 C          64.0620   82.3695   10.8447 C.3     1  UNL1        0.4186
     11 F          64.8451   82.3970    9.5656 F       1  UNL1       -0.1659
     12 F          64.9051   83.4863   11.3848 F       1  UNL1       -0.1659
     13 F          63.2189   81.2527   10.3045 F       1  UNL1       -0.1659
     14 C          60.6496   80.0219   13.9823 C.3     1  UNL1        0.4186
     15 F          59.7265   78.8757   14.2721 F       1  UNL1       -0.1659
     16 F          59.5462   80.9892   14.2936 F       1  UNL1       -0.1659
     17 F          61.7529   79.0547   13.6710 F       1  UNL1       -0.1659
     18 N          62.9156   85.6709   16.3707 N.pl3   1  UNL1       -0.2150
     19 H          62.6620   85.5306   17.3115 H       1  UNL1        0.1737
     20 C          64.4946   89.6685   15.0379 C.ar    1  UNL1        0.0002
     21 C          64.8004   88.4368   14.2383 C.ar    1  UNL1        0.0013
     22 C          64.2741   87.1043   14.6825 C.ar    1  UNL1        0.0159
     23 C          63.4419   87.0034   15.9264 C.ar    1  UNL1        0.0648
     24 C          63.1360   88.2351   16.7261 C.ar    1  UNL1        0.0159
     25 C          63.6624   89.5676   16.2818 C.ar    1  UNL1        0.0013
     26 C          65.4667   92.7278   12.7043 C.ar    1  UNL1        0.0590
     27 C          64.9404   91.3953   13.1486 C.ar    1  UNL1        0.0147
     28 C          65.0209   91.0011   14.5936 C.ar    1  UNL1        0.0027
     29 C          65.6278   91.9393   15.5943 C.ar    1  UNL1        0.0207
     30 C          66.1541   93.2717   15.1500 C.ar    1  UNL1        0.0984
     31 N          66.0735   93.6660   13.7050 N.ar    1  UNL1       -0.2482
     32 C          66.6210   93.1074   10.4079 C.3     1  UNL1        0.0067
     33 C          65.3861   93.1221   11.2593 C.3     1  UNL1        0.0458
@<TRIPOS>BOND
     1    32    33    1
     2    33    26    1
     3    26    27   ar
     4    27    28   ar
     5    28    20    1
     6    20    21   ar
     7    21    22   ar
     8    22    23   ar
     9    23    18    1
    10    18     1    1
    11     1     2    2
    12     1     3    2
    13     1     4    1
    14     4     5   ar
    15     5     6   ar
    16     6    10    1
    17    10    11    1
    18    10    12    1
    19    10    13    1
    20     6     7   ar
    21     7     8   ar
    22     8    14    1
    23    14    15    1
    24    14    16    1
    25    14    17    1
    26     8     9   ar
    27    23    24   ar
    28    24    25   ar
    29    28    29   ar
    30    29    30   ar
    31    30    31   ar
    32    31    26   ar
    33    25    20   ar
    34     9     4   ar
    35    18    19    1
@<TRIPOS>MOLECULE
*****
 33 35 0 0 0
SMALL
GASTEIGER

@<TRIPOS>ATOM
      1 S          62.7747   84.5491   15.3751 S.O2    1  UNL1        0.0736
      2 O          61.3215   84.8795   15.2056 O.2     1  UNL1       -0.1499
      3 O          64.2280   84.2186   15.5446 O.2     1  UNL1       -0.1499
      4 C          62.6360   83.4309   14.3850 C.ar    1  UNL1        0.1251
      5 C          61.7174   82.2813   14.6757 C.ar    1  UNL1        0.0240
      6 C          61.5787   81.1631   13.6856 C.ar    1  UNL1        0.0727
      7 C          62.3585   81.1945   12.4047 C.ar    1  UNL1        0.0078
      8 C          63.2771   82.3441   12.1139 C.ar    1  UNL1        0.0727
      9 C          63.4158   83.4623   13.1040 C.ar    1  UNL1        0.0240
     10 C          60.6600   80.0135   13.9764 C.3     1  UNL1        0.4186
     11 F          59.7414   78.8639   14.2673 F       1  UNL1       -0.1659
     12 F          61.7658   79.0502   13.6616 F       1  UNL1       -0.1659
     13 F          59.5542   80.9768   14.2913 F       1  UNL1       -0.1659
     14 C          64.0569   82.3756   10.8329 C.3     1  UNL1        0.4186
     15 F          64.8367   82.4070    9.5519 F       1  UNL1       -0.1659
     16 F          63.2019   81.2716   10.2852 F       1  UNL1       -0.1659
     17 F          64.9120   83.4796   11.3805 F       1  UNL1       -0.1659
     18 N          62.9135   85.6673   16.3653 N.pl3   1  UNL1       -0.2150
     19 H          62.6590   85.5264   17.3058 H       1  UNL1        0.1737
     20 C          64.4931   89.6660   15.0368 C.ar    1  UNL1        0.0002
     21 C          63.6556   89.5649   16.2771 C.ar    1  UNL1        0.0013
     22 C          63.1291   88.2320   16.7199 C.ar    1  UNL1        0.0159
     23 C          63.4400   87.0002   15.9224 C.ar    1  UNL1        0.0648
     24 C          64.2776   87.1013   14.6821 C.ar    1  UNL1        0.0159
     25 C          64.8041   88.4342   14.2393 C.ar    1  UNL1        0.0013
     26 C          65.4730   92.7244   12.7053 C.ar    1  UNL1        0.0590
     27 C          64.9465   91.3916   13.1481 C.ar    1  UNL1        0.0147
     28 C          65.0197   90.9990   14.5940 C.ar    1  UNL1        0.0027
     29 C          65.6194   91.9393   15.5970 C.ar    1  UNL1        0.0207
     30 C          66.1459   93.2722   15.1542 C.ar    1  UNL1        0.0984
     31 N          66.0727   93.6648   13.7083 N.ar    1  UNL1       -0.2482
     32 C          66.6433   93.1255   10.4207 C.3     1  UNL1        0.0067
     33 C          65.3998   93.1170   11.2594 C.3     1  UNL1        0.0458
@<TRIPOS>BOND
     1    32    33    1
     2    33    26    1
     3    26    27   ar
     4    27    28   ar
     5    28    20    1
     6    20    21   ar
     7    21    22   ar
     8    22    23   ar
     9    23    18    1
    10    18     1    1
    11     1     2    2
    12     1     3    2
    13     1     4    1
    14     4     5   ar
    15     5     6   ar
    16     6    10    1
    17    10    11    1
    18    10    12    1
    19    10    13    1
    20     6     7   ar
    21     7     8   ar
    22     8    14    1
    23    14    15    1
    24    14    16    1
    25    14    17    1
    26     8     9   ar
    27    23    24   ar
    28    24    25   ar
    29    28    29   ar
    30    29    30   ar
    31    30    31   ar
    32    31    26   ar
    33    25    20   ar
    34     9     4   ar
    35    18    19    1
@<TRIPOS>MOLECULE
*****
 33 35 0 0 0
SMALL
GASTEIGER

@<TRIPOS>ATOM
      1 S          63.1350   90.5376   11.5992 S.O2    1  UNL1        0.0736
      2 O          63.4442   90.5985   10.1326 O.2     1  UNL1       -0.1499
      3 O          62.8259   90.4767   13.0657 O.2     1  UNL1       -0.1499
      4 C          64.2595   91.4910   11.8758 C.ar    1  UNL1        0.1251
      5 C          64.8649   92.2824   10.7546 C.ar    1  UNL1        0.0240
      6 C          65.9894   93.2357   11.0312 C.ar    1  UNL1        0.0727
      7 C          66.5086   93.3977   12.4291 C.ar    1  UNL1        0.0078
      8 C          65.9033   92.6063   13.5503 C.ar    1  UNL1        0.0727
      9 C          64.7788   91.6529   13.2737 C.ar    1  UNL1        0.0240
     10 C          66.5947   94.0272    9.9099 C.3     1  UNL1        0.4186
     11 F          67.1999   94.8186    8.7886 F       1  UNL1       -0.1659
     12 F          67.4644   92.8580    9.5541 F       1  UNL1       -0.1659
     13 F          65.7250   95.1963   10.2656 F       1  UNL1       -0.1659
     14 C          66.4225   92.7683   14.9483 C.3     1  UNL1        0.4186
     15 F          66.9417   92.9302   16.3462 F       1  UNL1       -0.1659
     16 F          65.9954   91.3667   15.2693 F       1  UNL1       -0.1659
     17 F          66.8496   94.1699   14.6274 F       1  UNL1       -0.1659
     18 N          62.0105   89.5842   11.3225 N.pl3   1  UNL1       -0.2150
     19 H          61.1460   89.9240   10.9964 H       1  UNL1        0.1737
     20 C          62.5884   85.1707   11.9834 C.ar    1  UNL1        0.0002
     21 C          61.6115   85.6531   10.9524 C.ar    1  UNL1        0.0013
     22 C          61.4188   87.1242   10.7321 C.ar    1  UNL1        0.0159
     23 C          62.2032   88.1131   11.5428 C.ar    1  UNL1        0.0648
     24 C          63.1801   87.6306   12.5738 C.ar    1  UNL1        0.0159
     25 C          63.3727   86.1594   12.7940 C.ar    1  UNL1        0.0013
     26 C          63.0581   81.2988   11.2495 C.ar    1  UNL1        0.0590
     27 C          62.8655   82.7700   11.0293 C.ar    1  UNL1        0.0147
     28 C          62.7810   83.6994   12.2036 C.ar    1  UNL1        0.0027
     29 C          62.8892   83.1577   13.5982 C.ar    1  UNL1        0.0207
     30 C          63.0818   81.6865   13.8184 C.ar    1  UNL1        0.0984
     31 N          63.1662   80.7571   12.6440 N.ar    1  UNL1       -0.2482
     32 C          62.7679   78.9256   10.2329 C.3     1  UNL1        0.0067
     33 C          63.1425   80.3694   10.0752 C.3     1  UNL1        0.0458
@<TRIPOS>BOND
     1    32    33    1
     2    33    26    1
     3    26    27   ar
     4    27    28   ar
     5    28    20    1
     6    20    21   ar
     7    21    22   ar
     8    22    23   ar
     9    23    18    1
    10    18     1    1
    11     1     2    2
    12     1     3    2
    13     1     4    1
    14     4     5   ar
    15     5     6   ar
    16     6    10    1
    17    10    11    1
    18    10    12    1
    19    10    13    1
    20     6     7   ar
    21     7     8   ar
    22     8    14    1
    23    14    15    1
    24    14    16    1
    25    14    17    1
    26     8     9   ar
    27    23    24   ar
    28    24    25   ar
    29    28    29   ar
    30    29    30   ar
    31    30    31   ar
    32    31    26   ar
    33    25    20   ar
    34     9     4   ar
    35    18    19    1
@<TRIPOS>MOLECULE
*****
 33 35 0 0 0
SMALL
GASTEIGER

@<TRIPOS>ATOM
      1 S          63.1467   90.5032   11.6406 S.O2    1  UNL1        0.0736
      2 O          62.7625   90.4568   13.0898 O.2     1  UNL1       -0.1499
      3 O          63.5309   90.5497   10.1914 O.2     1  UNL1       -0.1499
      4 C          64.2595   91.4549   11.9661 C.ar    1  UNL1        0.1251
      5 C          64.7496   91.5810   13.3782 C.ar    1  UNL1        0.0240
      6 C          65.8624   92.5327   13.7037 C.ar    1  UNL1        0.0727
      7 C          66.4850   93.3583   12.6172 C.ar    1  UNL1        0.0078
      8 C          65.9949   93.2323   11.2052 C.ar    1  UNL1        0.0727
      9 C          64.8821   92.2806   10.8796 C.ar    1  UNL1        0.0240
     10 C          66.3525   92.6587   15.1158 C.3     1  UNL1        0.4186
     11 F          66.8426   92.7847   16.5278 F       1  UNL1       -0.1659
     12 F          65.2463   91.7583   15.5801 F       1  UNL1       -0.1659
     13 F          67.4587   93.5590   14.6515 F       1  UNL1       -0.1659
     14 C          66.6176   94.0580   10.1186 C.3     1  UNL1        0.4186
     15 F          67.2402   94.8836    9.0321 F       1  UNL1       -0.1659
     16 F          67.5236   92.9148    9.7691 F       1  UNL1       -0.1659
     17 F          65.7116   95.2012   10.4681 F       1  UNL1       -0.1659
     18 N          62.0339   89.5515   11.3151 N.pl3   1  UNL1       -0.2150
     19 H          61.1834   89.8931   10.9556 H       1  UNL1        0.1737
     20 C          62.5829   85.1352   11.9817 C.ar    1  UNL1        0.0002
     21 C          61.6082   85.6226   10.9510 C.ar    1  UNL1        0.0013
     22 C          61.4252   87.0947   10.7288 C.ar    1  UNL1        0.0159
     23 C          62.2169   88.0794   11.5373 C.ar    1  UNL1        0.0648
     24 C          63.1917   87.5920   12.5679 C.ar    1  UNL1        0.0159
     25 C          63.3746   86.1198   12.7901 C.ar    1  UNL1        0.0013
     26 C          63.0432   81.2613   11.2525 C.ar    1  UNL1        0.0590
     27 C          62.8602   82.7334   11.0304 C.ar    1  UNL1        0.0147
     28 C          62.7659   83.6630   12.2038 C.ar    1  UNL1        0.0027
     29 C          62.8546   83.1204   13.5994 C.ar    1  UNL1        0.0207
     30 C          63.0376   81.6483   13.8215 C.ar    1  UNL1        0.0984
     31 N          63.1319   80.7188   12.6481 N.ar    1  UNL1       -0.2482
     32 C          62.7513   78.8904   10.2310 C.3     1  UNL1        0.0067
     33 C          63.1375   80.3318   10.0790 C.3     1  UNL1        0.0458
@<TRIPOS>BOND
     1    32    33    1
     2    33    26    1
     3    26    27   ar
     4    27    28   ar
     5    28    20    1
     6    20    21   ar
     7    21    22   ar
     8    22    23   ar
     9    23    18    1
    10    18     1    1
    11     1     2    2
    12     1     3    2
    13     1     4    1
    14     4     5   ar
    15     5     6   ar
    16     6    10    1
    17    10    11    1
    18    10    12    1
    19    10    13    1
    20     6     7   ar
    21     7     8   ar
    22     8    14    1
    23    14    15    1
    24    14    16    1
    25    14    17    1
    26     8     9   ar
    27    23    24   ar
    28    24    25   ar
    29    28    29   ar
    30    29    30   ar
    31    30    31   ar
    32    31    26   ar
    33    25    20   ar
    34     9     4   ar
    35    18    19    1
@<TRIPOS>MOLECULE
*****
 33 35 0 0 0
SMALL
GASTEIGER

@<TRIPOS>ATOM
      1 S          62.7492   84.5382   15.2865 S.O2    1  UNL1        0.0736
      2 O          61.2758   84.8102   15.2143 O.2     1  UNL1       -0.1499
      3 O          64.2225   84.2661   15.3587 O.2     1  UNL1       -0.1499
      4 C          62.5841   83.3912   14.3341 C.ar    1  UNL1        0.1251
      5 C          63.3769   83.3530   13.0614 C.ar    1  UNL1        0.0240
      6 C          63.2118   82.2060   12.1089 C.ar    1  UNL1        0.0727
      7 C          62.2539   81.0972   12.4292 C.ar    1  UNL1        0.0078
      8 C          61.4610   81.1353   13.7019 C.ar    1  UNL1        0.0727
      9 C          61.6261   82.2823   14.6544 C.ar    1  UNL1        0.0240
     10 C          64.0048   82.1680   10.8361 C.3     1  UNL1        0.4186
     11 F          64.7976   82.1299    9.5634 F       1  UNL1       -0.1659
     12 F          64.8718   83.2822   11.3429 F       1  UNL1       -0.1659
     13 F          63.1378   81.0538   10.3294 F       1  UNL1       -0.1659
     14 C          60.5030   80.0263   14.0223 C.3     1  UNL1        0.4186
     15 F          59.5450   78.9175   14.3426 F       1  UNL1       -0.1659
     16 F          59.4180   81.0335   14.2639 F       1  UNL1       -0.1659
     17 F          61.5879   79.0192   13.7807 F       1  UNL1       -0.1659
     18 N          62.9142   85.6852   16.2389 N.pl3   1  UNL1       -0.2150
     19 H          62.6698   85.5773   17.1865 H       1  UNL1        0.1737
     20 C          64.5269   89.6193   14.7653 C.ar    1  UNL1        0.0002
     21 C          63.7372   89.5624   16.0393 C.ar    1  UNL1        0.0013
     22 C          63.1997   88.2510   16.5305 C.ar    1  UNL1        0.0159
     23 C          63.4518   86.9965   15.7477 C.ar    1  UNL1        0.0648
     24 C          64.2415   87.0534   14.4737 C.ar    1  UNL1        0.0159
     25 C          64.7790   88.3649   13.9825 C.ar    1  UNL1        0.0013
     26 C          66.6587   92.9610   14.5682 C.ar    1  UNL1        0.0590
     27 C          66.1211   91.6496   15.0593 C.ar    1  UNL1        0.0147
     28 C          65.0645   90.9308   14.2740 C.ar    1  UNL1        0.0027
     29 C          64.5453   91.5233   12.9976 C.ar    1  UNL1        0.0207
     30 C          65.0829   92.8347   12.5064 C.ar    1  UNL1        0.0984
     31 N          66.1396   93.5535   13.2917 N.ar    1  UNL1       -0.2482
     32 C          68.5831   92.9209   16.3131 C.3     1  UNL1        0.0067
     33 C          67.7154   93.6798   15.3535 C.3     1  UNL1        0.0458
@<TRIPOS>BOND
     1    32    33    1
     2    33    26    1
     3    26    27   ar
     4    27    28   ar
     5    28    20    1
     6    20    21   ar
     7    21    22   ar
     8    22    23   ar
     9    23    18    1
    10    18     1    1
    11     1     2    2
    12     1     3    2
    13     1     4    1
    14     4     5   ar
    15     5     6   ar
    16     6    10    1
    17    10    11    1
    18    10    12    1
    19    10    13    1
    20     6     7   ar
    21     7     8   ar
    22     8    14    1
    23    14    15    1
    24    14    16    1
    25    14    17    1
    26     8     9   ar
    27    23    24   ar
    28    24    25   ar
    29    28    29   ar
    30    29    30   ar
    31    30    31   ar
    32    31    26   ar
    33    25    20   ar
    34     9     4   ar
    35    18    19    1
@<TRIPOS>MOLECULE
*****
 33 35 0 0 0
SMALL
GASTEIGER

@<TRIPOS>ATOM
      1 S          63.9208   88.9134   15.1967 S.O2    1  UNL1        0.0736
      2 O          65.2131   88.2047   14.9180 O.2     1  UNL1       -0.1499
      3 O          62.6285   89.6222   15.4754 O.2     1  UNL1       -0.1499
      4 C          64.3674   90.0633   14.3433 C.ar    1  UNL1        0.1251
      5 C          63.7924   90.2458   12.9700 C.ar    1  UNL1        0.0240
      6 C          64.2390   91.3956   12.1166 C.ar    1  UNL1        0.0727
      7 C          65.2606   92.3630   12.6364 C.ar    1  UNL1        0.0078
      8 C          65.8357   92.1806   14.0097 C.ar    1  UNL1        0.0727
      9 C          65.3891   91.0307   14.8632 C.ar    1  UNL1        0.0240
     10 C          63.6639   91.5781   10.7432 C.3     1  UNL1        0.4186
     11 F          63.0888   91.7606    9.3699 F       1  UNL1       -0.1659
     12 F          62.4384   90.8177   11.1553 F       1  UNL1       -0.1659
     13 F          64.8893   92.3385   10.3311 F       1  UNL1       -0.1659
     14 C          66.8574   93.1480   14.5297 C.3     1  UNL1        0.4186
     15 F          67.8791   94.1153   15.0496 F       1  UNL1       -0.1659
     16 F          67.4146   92.0794   15.4228 F       1  UNL1       -0.1659
     17 F          66.3002   94.2165   13.6365 F       1  UNL1       -0.1659
     18 N          63.4742   87.7636   16.0502 N.pl3   1  UNL1       -0.2150
     19 H          63.3070   87.8994   17.0108 H       1  UNL1        0.1737
     20 C          62.8985   83.6933   14.2195 C.ar    1  UNL1        0.0002
     21 C          63.3637   84.8387   13.3700 C.ar    1  UNL1        0.0013
     22 C          63.5556   86.1955   13.9802 C.ar    1  UNL1        0.0159
     23 C          63.2823   86.4068   15.4399 C.ar    1  UNL1        0.0648
     24 C          62.8171   85.2614   16.2894 C.ar    1  UNL1        0.0159
     25 C          62.6252   83.9046   15.6791 C.ar    1  UNL1        0.0013
     26 C          62.8845   80.7435   11.5645 C.ar    1  UNL1        0.0590
     27 C          63.0764   82.1002   12.1748 C.ar    1  UNL1        0.0147
     28 C          62.7066   82.3365   13.6092 C.ar    1  UNL1        0.0027
     29 C          62.1450   81.2161   14.4333 C.ar    1  UNL1        0.0207
     30 C          61.9531   79.8594   13.8230 C.ar    1  UNL1        0.0984
     31 N          62.3229   79.6231   12.3886 N.ar    1  UNL1       -0.2482
     32 C          62.8787   79.2183    9.4613 C.3     1  UNL1        0.0067
     33 C          63.2543   80.5073   10.1301 C.3     1  UNL1        0.0458
@<TRIPOS>BOND
     1    32    33    1
     2    33    26    1
     3    26    27   ar
     4    27    28   ar
     5    28    20    1
     6    20    21   ar
     7    21    22   ar
     8    22    23   ar
     9    23    18    1
    10    18     1    1
    11     1     2    2
    12     1     3    2
    13     1     4    1
    14     4     5   ar
    15     5     6   ar
    16     6    10    1
    17    10    11    1
    18    10    12    1
    19    10    13    1
    20     6     7   ar
    21     7     8   ar
    22     8    14    1
    23    14    15    1
    24    14    16    1
    25    14    17    1
    26     8     9   ar
    27    23    24   ar
    28    24    25   ar
    29    28    29   ar
    30    29    30   ar
    31    30    31   ar
    32    31    26   ar
    33    25    20   ar
    34     9     4   ar
    35    18    19    1
@<TRIPOS>MOLECULE
*****
 33 35 0 0 0
SMALL
GASTEIGER

@<TRIPOS>ATOM
      1 S          63.9167   88.8604   15.2271 S.O2    1  UNL1        0.0736
      2 O          65.2064   88.1608   14.9152 O.2     1  UNL1       -0.1499
      3 O          62.6270   89.5599   15.5390 O.2     1  UNL1       -0.1499
      4 C          64.3379   90.0183   14.3717 C.ar    1  UNL1        0.1251
      5 C          65.3179   91.0236   14.8999 C.ar    1  UNL1        0.0240
      6 C          65.7391   92.1815   14.0445 C.ar    1  UNL1        0.0727
      7 C          65.1803   92.3343   12.6609 C.ar    1  UNL1        0.0078
      8 C          64.2003   91.3290   12.1327 C.ar    1  UNL1        0.0727
      9 C          63.7791   90.1711   12.9881 C.ar    1  UNL1        0.0240
     10 C          66.7192   93.1868   14.5727 C.3     1  UNL1        0.4186
     11 F          67.6992   94.1920   15.1009 F       1  UNL1       -0.1659
     12 F          66.5680   92.6108   15.9494 F       1  UNL1       -0.1659
     13 F          66.8703   93.7628   13.1960 F       1  UNL1       -0.1659
     14 C          63.6414   91.4817   10.7491 C.3     1  UNL1        0.4186
     15 F          63.0825   91.6345    9.3655 F       1  UNL1       -0.1659
     16 F          64.4992   92.6937   10.5364 F       1  UNL1       -0.1659
     17 F          62.7836   90.2698   10.9618 F       1  UNL1       -0.1659
     18 N          63.4955   87.7024   16.0825 N.pl3   1  UNL1       -0.2150
     19 H          63.3434   87.8322   17.0465 H       1  UNL1        0.1737
     20 C          62.9273   83.6353   14.2425 C.ar    1  UNL1        0.0002
     21 C          63.5882   84.7284   13.4563 C.ar    1  UNL1        0.0013
     22 C          63.7777   86.0841   14.0696 C.ar    1  UNL1        0.0159
     23 C          63.3061   86.3467   15.4692 C.ar    1  UNL1        0.0648
     24 C          62.6451   85.2535   16.2554 C.ar    1  UNL1        0.0159
     25 C          62.4557   83.8978   15.6420 C.ar    1  UNL1        0.0013
     26 C          62.8814   80.7016   11.5701 C.ar    1  UNL1        0.0590
     27 C          63.0708   82.0573   12.1835 C.ar    1  UNL1        0.0147
     28 C          62.7379   82.2795   13.6291 C.ar    1  UNL1        0.0027
     29 C          62.2156   81.1462   14.4613 C.ar    1  UNL1        0.0207
     30 C          62.0262   79.7905   13.8480 C.ar    1  UNL1        0.0984
     31 N          62.3591   79.5682   12.4024 N.ar    1  UNL1       -0.2482
     32 C          62.8231   79.1961    9.4535 C.3     1  UNL1        0.0067
     33 C          63.2143   80.4793   10.1245 C.3     1  UNL1        0.0458
@<TRIPOS>BOND
     1    32    33    1
     2    33    26    1
     3    26    27   ar
     4    27    28   ar
     5    28    20    1
     6    20    21   ar
     7    21    22   ar
     8    22    23   ar
     9    23    18    1
    10    18     1    1
    11     1     2    2
    12     1     3    2
    13     1     4    1
    14     4     5   ar
    15     5     6   ar
    16     6    10    1
    17    10    11    1
    18    10    12    1
    19    10    13    1
    20     6     7   ar
    21     7     8   ar
    22     8    14    1
    23    14    15    1
    24    14    16    1
    25    14    17    1
    26     8     9   ar
    27    23    24   ar
    28    24    25   ar
    29    28    29   ar
    30    29    30   ar
    31    30    31   ar
    32    31    26   ar
    33    25    20   ar
    34     9     4   ar
    35    18    19    1
