@<TRIPOS>MOLECULE
*****
 31 35 0 0 0
SMALL
GASTEIGER

@<TRIPOS>ATOM
      1 C          65.7891   94.4042   11.3803 C.ar    1  UNL1        0.2416
      2 N          66.5206   94.8183   12.6226 N.ar    1  UNL1       -0.1932
      3 C          66.3719   93.7218   13.6354 C.ar    1  UNL1        0.1667
      4 C          66.8800   93.5765   15.0392 C.ar    1  UNL1        0.0389
      5 C          66.5645   92.3395   15.8266 C.ar    1  UNL1        0.0047
      6 C          65.7410   91.2477   15.2102 C.ar    1  UNL1        0.0193
      7 C          65.2330   91.3930   13.8064 C.ar    1  UNL1        0.0845
      8 N          65.5484   92.6301   13.0190 N.ar    1  UNL1       -0.2095
      9 N          65.1882   93.0518   11.6253 N.ar    1  UNL1       -0.1280
     10 C          64.4095   90.3012   13.1900 C.ar    1  UNL1        0.0177
     11 C          63.6195   90.5703   11.9437 C.ar    1  UNL1        0.0012
     12 C          62.7960   89.4786   11.3273 C.ar    1  UNL1       -0.0029
     13 C          62.7625   88.1177   11.9573 C.ar    1  UNL1       -0.0061
     14 C          63.5525   87.8486   13.2037 C.ar    1  UNL1       -0.0029
     15 C          64.3760   88.9404   13.8200 C.ar    1  UNL1        0.0012
     16 C          61.9390   87.0260   11.3409 C.3     1  UNL1        0.0992
     17 N          62.4776   85.6277   11.2728 N.3     1  UNL1       -0.2659
     18 C          62.4442   84.7509   12.4895 C.3     1  UNL1        0.0980
     19 C          62.9828   83.3527   12.4213 C.3     1  UNL1        0.1681
     20 S          63.5549   82.8311   11.1366 S.O2    1  UNL1       -0.0072
     21 O          64.1923   81.8918   10.1561 O.2     1  UNL1       -0.1729
     22 O          63.7428   81.6282   12.0127 O.2     1  UNL1       -0.1729
     23 C          63.5884   83.7078    9.9199 C.3     1  UNL1        0.1681
     24 C          63.0498   85.1061    9.9880 C.3     1  UNL1        0.0980
     25 O          68.1693   94.6978    9.5779 O.2     1  UNL1       -0.2747
     26 C          66.8679   95.3491    9.2139 C.2     1  UNL1        0.2278
     27 N          65.6779   95.2023   10.1151 N.am    1  UNL1       -0.2528
     28 H          64.8238   95.6298    9.8762 H       1  UNL1        0.1578
     29 C          66.7567   96.1473    7.9488 C.3     1  UNL1        0.0769
     30 C          67.4082   96.8559    6.7984 C.3     1  UNL1        0.0096
     31 C          65.9126   96.8211    6.9079 C.3     1  UNL1        0.0096
@<TRIPOS>BOND
     1    25    26    2
     2    26    27   am
     3    27     1    1
     4     1     2   ar
     5     2     3   ar
     6     3     4   ar
     7     4     5   ar
     8     5     6   ar
     9     6     7   ar
    10     7    10    1
    11    10    11   ar
    12    11    12   ar
    13    12    13   ar
    14    13    16    1
    15    16    17    1
    16    17    18    1
    17    18    19    1
    18    19    20    1
    19    20    21    2
    20    20    22    2
    21    20    23    1
    22    23    24    1
    23    13    14   ar
    24    14    15   ar
    25     7     8   ar
    26     8     9   ar
    27    26    29    1
    28    29    30    1
    29    30    31    1
    30     9     1   ar
    31    31    29    1
    32     8     3   ar
    33    15    10   ar
    34    24    17    1
    35    27    28    1
@<TRIPOS>MOLECULE
*****
 31 35 0 0 0
SMALL
GASTEIGER

@<TRIPOS>ATOM
      1 C          62.4158   85.8554   11.0982 C.ar    1  UNL1        0.2416
      2 N          62.3563   84.7792   12.1413 N.ar    1  UNL1       -0.1932
      3 C          62.9271   85.3338   13.4128 C.ar    1  UNL1        0.1667
      4 C          63.1247   84.7300   14.7716 C.ar    1  UNL1        0.0389
      5 C          63.7345   85.5453   15.8730 C.ar    1  UNL1        0.0047
      6 C          64.1469   86.9644   15.6157 C.ar    1  UNL1        0.0193
      7 C          63.9493   87.5682   14.2569 C.ar    1  UNL1        0.0845
      8 N          63.3394   86.7529   13.1554 N.ar    1  UNL1       -0.2095
      9 N          63.0234   87.0752   11.7249 N.ar    1  UNL1       -0.1280
     10 C          64.3616   88.9873   13.9995 C.ar    1  UNL1        0.0177
     11 C          63.6890   89.7793   12.9178 C.ar    1  UNL1        0.0012
     12 C          64.1013   91.1984   12.6604 C.ar    1  UNL1       -0.0029
     13 C          65.1862   91.8254   13.4849 C.ar    1  UNL1       -0.0061
     14 C          65.8588   91.0334   14.5667 C.ar    1  UNL1       -0.0029
     15 C          65.4465   89.6143   14.8240 C.ar    1  UNL1        0.0012
     16 C          65.5985   93.2445   13.2275 C.3     1  UNL1        0.0992
     17 N          66.2231   93.6179   11.9159 N.3     1  UNL1       -0.2659
     18 C          66.8967   92.5698   11.0805 C.3     1  UNL1        0.0980
     19 C          67.5213   92.9433    9.7689 C.3     1  UNL1        0.1681
     20 S          67.4723   94.3648    9.2926 S.O2    1  UNL1       -0.0072
     21 O          67.6826   95.5673    8.4211 O.2     1  UNL1       -0.1729
     22 O          68.2189   93.7343    8.1546 O.2     1  UNL1       -0.1729
     23 C          66.7988   95.4129   10.1279 C.3     1  UNL1        0.1681
     24 C          66.1742   95.0395   11.4396 C.3     1  UNL1        0.0980
     25 O          63.8896   84.0772    9.1834 O.2     1  UNL1       -0.2747
     26 C          62.6864   84.8442    8.7203 C.2     1  UNL1        0.2278
     27 N          61.9496   85.7333    9.6777 N.am    1  UNL1       -0.2528
     28 H          61.1600   86.2366    9.3738 H       1  UNL1        0.1578
     29 C          62.2202   84.7221    7.2999 C.3     1  UNL1        0.0769
     30 C          61.1122   84.7514    6.2893 C.3     1  UNL1        0.0096
     31 C          62.5208   84.4812    5.8502 C.3     1  UNL1        0.0096
@<TRIPOS>BOND
     1    25    26    2
     2    26    27   am
     3    27     1    1
     4     1     2   ar
     5     2     3   ar
     6     3     4   ar
     7     4     5   ar
     8     5     6   ar
     9     6     7   ar
    10     7    10    1
    11    10    11   ar
    12    11    12   ar
    13    12    13   ar
    14    13    16    1
    15    16    17    1
    16    17    18    1
    17    18    19    1
    18    19    20    1
    19    20    21    2
    20    20    22    2
    21    20    23    1
    22    23    24    1
    23    13    14   ar
    24    14    15   ar
    25     7     8   ar
    26     8     9   ar
    27    26    29    1
    28    29    30    1
    29    30    31    1
    30     9     1   ar
    31    31    29    1
    32     8     3   ar
    33    15    10   ar
    34    24    17    1
    35    27    28    1
@<TRIPOS>MOLECULE
*****
 31 35 0 0 0
SMALL
GASTEIGER

@<TRIPOS>ATOM
      1 C          62.0313   86.3500   11.3315 C.ar    1  UNL1        0.2416
      2 N          62.1348   85.1918   12.2791 N.ar    1  UNL1       -0.1932
      3 C          62.9644   85.6247   13.4514 C.ar    1  UNL1        0.1667
      4 C          63.4000   84.9049   14.6931 C.ar    1  UNL1        0.0389
      5 C          64.2450   85.6108   15.7118 C.ar    1  UNL1        0.0047
      6 C          64.6542   87.0365   15.4887 C.ar    1  UNL1        0.0193
      7 C          64.2186   87.7564   14.2470 C.ar    1  UNL1        0.0845
      8 N          63.3737   87.0505   13.2283 N.ar    1  UNL1       -0.2095
      9 N          62.7970   87.4987   11.9181 N.ar    1  UNL1       -0.1280
     10 C          64.6279   89.1821   14.0239 C.ar    1  UNL1        0.0177
     11 C          65.7435   89.7772   14.8308 C.ar    1  UNL1        0.0012
     12 C          66.1528   91.2029   14.6078 C.ar    1  UNL1       -0.0029
     13 C          65.4464   92.0336   13.5778 C.ar    1  UNL1       -0.0061
     14 C          64.3308   91.4385   12.7708 C.ar    1  UNL1       -0.0029
     15 C          63.9215   90.0128   12.9939 C.ar    1  UNL1        0.0012
     16 C          65.8557   93.4593   13.3547 C.3     1  UNL1        0.0992
     17 N          66.3462   93.8966   12.0063 N.3     1  UNL1       -0.2659
     18 C          66.8817   92.8836   11.0382 C.3     1  UNL1        0.0980
     19 C          67.3722   93.3209    9.6898 C.3     1  UNL1        0.1681
     20 S          67.3272   94.7712    9.3095 S.O2    1  UNL1       -0.0072
     21 O          67.4876   96.0203    8.4947 O.2     1  UNL1       -0.1729
     22 O          67.9184   94.1920    8.0585 O.2     1  UNL1       -0.1729
     23 C          66.7918   95.7842   10.2775 C.3     1  UNL1        0.1681
     24 C          66.3013   95.3469   11.6260 C.3     1  UNL1        0.0980
     25 O          60.1031   88.5636   10.7134 O.2     1  UNL1       -0.2747
     26 C          60.3279   87.4648    9.7173 C.2     1  UNL1        0.2278
     27 N          61.2919   86.3580   10.0264 N.am    1  UNL1       -0.2528
     28 H          61.4394   85.6369    9.3726 H       1  UNL1        0.1578
     29 C          59.5885   87.4729    8.4122 C.3     1  UNL1        0.0769
     30 C          59.0397   88.2227    7.2348 C.3     1  UNL1        0.0096
     31 C          58.8567   86.7369    7.3293 C.3     1  UNL1        0.0096
@<TRIPOS>BOND
     1    25    26    2
     2    26    27   am
     3    27     1    1
     4     1     2   ar
     5     2     3   ar
     6     3     4   ar
     7     4     5   ar
     8     5     6   ar
     9     6     7   ar
    10     7    10    1
    11    10    11   ar
    12    11    12   ar
    13    12    13   ar
    14    13    16    1
    15    16    17    1
    16    17    18    1
    17    18    19    1
    18    19    20    1
    19    20    21    2
    20    20    22    2
    21    20    23    1
    22    23    24    1
    23    13    14   ar
    24    14    15   ar
    25     7     8   ar
    26     8     9   ar
    27    26    29    1
    28    29    30    1
    29    30    31    1
    30     9     1   ar
    31    31    29    1
    32     8     3   ar
    33    15    10   ar
    34    24    17    1
    35    27    28    1
@<TRIPOS>MOLECULE
*****
 31 35 0 0 0
SMALL
GASTEIGER

@<TRIPOS>ATOM
      1 C          63.1480   85.2718   13.4736 C.ar    1  UNL1        0.2416
      2 N          64.0047   86.1160   14.3699 N.ar    1  UNL1       -0.1932
      3 C          63.9418   87.5302   13.8740 C.ar    1  UNL1        0.1667
      4 C          64.5843   88.7946   14.3623 C.ar    1  UNL1        0.0389
      5 C          64.3312   90.0889   13.6477 C.ar    1  UNL1        0.0047
      6 C          63.4357   90.1188   12.4448 C.ar    1  UNL1        0.0193
      7 C          62.7932   88.8544   11.9565 C.ar    1  UNL1        0.0845
      8 N          63.0462   87.5601   12.6711 N.ar    1  UNL1       -0.2095
      9 N          62.5557   86.1644   12.4236 N.ar    1  UNL1       -0.1280
     10 C          61.8976   88.8844   10.7535 C.ar    1  UNL1        0.0177
     11 C          61.8532   87.7095    9.8221 C.ar    1  UNL1        0.0012
     12 C          60.9577   87.7394    8.6192 C.ar    1  UNL1       -0.0029
     13 C          60.1065   88.9442    8.3476 C.ar    1  UNL1       -0.0061
     14 C          60.1508   90.1191    9.2791 C.ar    1  UNL1       -0.0029
     15 C          61.0464   90.0892   10.4820 C.ar    1  UNL1        0.0012
     16 C          59.2109   88.9741    7.1447 C.3     1  UNL1        0.0992
     17 N          59.4251   90.0043    6.0756 N.3     1  UNL1       -0.2659
     18 C          60.8035   90.2524    5.5385 C.3     1  UNL1        0.0980
     19 C          61.0177   91.2825    4.4695 C.3     1  UNL1        0.1681
     20 S          59.8535   92.0645    3.9375 S.O2    1  UNL1       -0.0072
     21 O          59.0741   93.0518    3.1204 O.2     1  UNL1       -0.1729
     22 O          60.9613   92.6555    3.1167 O.2     1  UNL1       -0.1729
     23 C          58.4752   91.8165    4.4745 C.3     1  UNL1        0.1681
     24 C          58.2609   90.7863    5.5436 C.3     1  UNL1        0.0980
     25 O          63.2490   83.5183   11.0414 O.2     1  UNL1       -0.2747
     26 C          62.9736   82.9178   12.3882 C.2     1  UNL1        0.2278
     27 N          62.9232   83.7945   13.6042 N.am    1  UNL1       -0.2528
     28 H          62.7425   83.4004   14.4881 H       1  UNL1        0.1578
     29 C          62.7488   81.4405   12.5188 C.3     1  UNL1        0.0769
     30 C          62.3642   80.2537   13.3516 C.3     1  UNL1        0.0096
     31 C          62.7440   80.0686   11.9123 C.3     1  UNL1        0.0096
@<TRIPOS>BOND
     1    25    26    2
     2    26    27   am
     3    27     1    1
     4     1     2   ar
     5     2     3   ar
     6     3     4   ar
     7     4     5   ar
     8     5     6   ar
     9     6     7   ar
    10     7    10    1
    11    10    11   ar
    12    11    12   ar
    13    12    13   ar
    14    13    16    1
    15    16    17    1
    16    17    18    1
    17    18    19    1
    18    19    20    1
    19    20    21    2
    20    20    22    2
    21    20    23    1
    22    23    24    1
    23    13    14   ar
    24    14    15   ar
    25     7     8   ar
    26     8     9   ar
    27    26    29    1
    28    29    30    1
    29    30    31    1
    30     9     1   ar
    31    31    29    1
    32     8     3   ar
    33    15    10   ar
    34    24    17    1
    35    27    28    1
@<TRIPOS>MOLECULE
*****
 31 35 0 0 0
SMALL
GASTEIGER

@<TRIPOS>ATOM
      1 C          65.1370   92.7996   11.8805 C.ar    1  UNL1        0.2416
      2 N          65.6407   92.2660   13.1887 N.ar    1  UNL1       -0.1932
      3 C          64.9554   90.9575   13.4504 C.ar    1  UNL1        0.1667
      4 C          65.0560   89.9810   14.5845 C.ar    1  UNL1        0.0389
      5 C          64.2293   88.7295   14.5720 C.ar    1  UNL1        0.0047
      6 C          63.3021   88.4544   13.4255 C.ar    1  UNL1        0.0193
      7 C          63.2015   89.4309   12.2914 C.ar    1  UNL1        0.0845
      8 N          64.0282   90.6825   12.3038 N.ar    1  UNL1       -0.2095
      9 N          64.1404   91.8209   11.3336 N.ar    1  UNL1       -0.1280
     10 C          62.2743   89.1559   11.1448 C.ar    1  UNL1        0.0177
     11 C          62.4449   87.9121   10.3240 C.ar    1  UNL1        0.0012
     12 C          61.5177   87.6370    9.1775 C.ar    1  UNL1       -0.0029
     13 C          60.4198   88.6058    8.8517 C.ar    1  UNL1       -0.0061
     14 C          60.2493   89.8497    9.6724 C.ar    1  UNL1       -0.0029
     15 C          61.1765   90.1247   10.8190 C.ar    1  UNL1        0.0012
     16 C          59.4926   88.3308    7.7051 C.3     1  UNL1        0.0992
     17 N          59.1772   89.4159    6.7187 N.3     1  UNL1       -0.2659
     18 C          57.7495   89.7690    6.4231 C.3     1  UNL1        0.0980
     19 C          57.4341   90.8541    5.4368 C.3     1  UNL1        0.1681
     20 S          58.5462   91.5861    4.7459 S.O2    1  UNL1       -0.0072
     21 O          59.2471   92.5580    3.8436 O.2     1  UNL1       -0.1729
     22 O          57.3620   92.2767    4.1370 O.2     1  UNL1       -0.1729
     23 C          59.9738   91.2331    5.0414 C.3     1  UNL1        0.1681
     24 C          60.2893   90.1479    6.0278 C.3     1  UNL1        0.0980
     25 O          67.2651   92.7906    9.7660 O.2     1  UNL1       -0.2747
     26 C          66.6203   94.0815   10.1756 C.2     1  UNL1        0.2278
     27 N          65.5562   94.0860   11.2328 N.am    1  UNL1       -0.2528
     28 H          65.1330   94.9332   11.5017 H       1  UNL1        0.1578
     29 C          67.0395   95.3679    9.5280 C.3     1  UNL1        0.0769
     30 C          67.2175   96.8560    9.5903 C.3     1  UNL1        0.0096
     31 C          67.5877   96.1079    8.3440 C.3     1  UNL1        0.0096
@<TRIPOS>BOND
     1    25    26    2
     2    26    27   am
     3    27     1    1
     4     1     2   ar
     5     2     3   ar
     6     3     4   ar
     7     4     5   ar
     8     5     6   ar
     9     6     7   ar
    10     7    10    1
    11    10    11   ar
    12    11    12   ar
    13    12    13   ar
    14    13    16    1
    15    16    17    1
    16    17    18    1
    17    18    19    1
    18    19    20    1
    19    20    21    2
    20    20    22    2
    21    20    23    1
    22    23    24    1
    23    13    14   ar
    24    14    15   ar
    25     7     8   ar
    26     8     9   ar
    27    26    29    1
    28    29    30    1
    29    30    31    1
    30     9     1   ar
    31    31    29    1
    32     8     3   ar
    33    15    10   ar
    34    24    17    1
    35    27    28    1
@<TRIPOS>MOLECULE
*****
 31 35 0 0 0
SMALL
GASTEIGER

@<TRIPOS>ATOM
      1 C          63.8104   85.5079   13.7159 C.ar    1  UNL1        0.2416
      2 N          63.2613   85.0883   15.0472 N.ar    1  UNL1       -0.1932
      3 C          63.1954   86.3028   15.9250 C.ar    1  UNL1        0.1667
      4 C          62.7381   86.4943   17.3407 C.ar    1  UNL1        0.0389
      5 C          62.7892   87.8560   17.9676 C.ar    1  UNL1        0.0047
      6 C          63.2975   89.0263   17.1788 C.ar    1  UNL1        0.0193
      7 C          63.7548   88.8347   15.7632 C.ar    1  UNL1        0.0845
      8 N          63.7037   87.4730   15.1363 N.ar    1  UNL1       -0.2095
      9 N          64.0839   86.9817   13.7709 N.ar    1  UNL1       -0.1280
     10 C          64.2632   90.0050   14.9744 C.ar    1  UNL1        0.0177
     11 C          65.2758   90.9328   15.5773 C.ar    1  UNL1        0.0012
     12 C          65.7842   92.1030   14.7885 C.ar    1  UNL1       -0.0029
     13 C          65.2799   92.3454   13.3968 C.ar    1  UNL1       -0.0061
     14 C          64.2672   91.4176   12.7939 C.ar    1  UNL1       -0.0029
     15 C          63.7588   90.2473   13.5827 C.ar    1  UNL1        0.0012
     16 C          65.7882   93.5156   12.6081 C.3     1  UNL1        0.0992
     17 N          66.5978   93.2881   11.3660 N.3     1  UNL1       -0.2659
     18 C          66.4795   94.2361   10.2095 C.3     1  UNL1        0.0980
     19 C          67.2891   94.0086    8.9674 C.3     1  UNL1        0.1681
     20 S          68.2168   92.8330    8.8817 S.O2    1  UNL1       -0.0072
     21 O          69.2251   91.8707    8.3275 O.2     1  UNL1       -0.1729
     22 O          68.4488   93.4468    7.5328 O.2     1  UNL1       -0.1729
     23 C          68.3351   91.8850   10.0381 C.3     1  UNL1        0.1681
     24 C          67.5255   92.1125   11.2803 C.3     1  UNL1        0.0980
     25 O          62.2662   82.9501   13.4459 O.2     1  UNL1       -0.2747
     26 C          63.2729   83.3322   12.4016 C.2     1  UNL1        0.2278
     27 N          64.0450   84.6111   12.5365 N.am    1  UNL1       -0.2528
     28 H          64.7057   84.8619   11.8511 H       1  UNL1        0.1578
     29 C          63.5074   82.4354   11.2222 C.3     1  UNL1        0.0769
     30 C          64.1423   82.1852    9.8865 C.3     1  UNL1        0.0096
     31 C          63.2787   81.1324   10.5154 C.3     1  UNL1        0.0096
@<TRIPOS>BOND
     1    25    26    2
     2    26    27   am
     3    27     1    1
     4     1     2   ar
     5     2     3   ar
     6     3     4   ar
     7     4     5   ar
     8     5     6   ar
     9     6     7   ar
    10     7    10    1
    11    10    11   ar
    12    11    12   ar
    13    12    13   ar
    14    13    16    1
    15    16    17    1
    16    17    18    1
    17    18    19    1
    18    19    20    1
    19    20    21    2
    20    20    22    2
    21    20    23    1
    22    23    24    1
    23    13    14   ar
    24    14    15   ar
    25     7     8   ar
    26     8     9   ar
    27    26    29    1
    28    29    30    1
    29    30    31    1
    30     9     1   ar
    31    31    29    1
    32     8     3   ar
    33    15    10   ar
    34    24    17    1
    35    27    28    1
@<TRIPOS>MOLECULE
*****
 31 35 0 0 0
SMALL
GASTEIGER

@<TRIPOS>ATOM
      1 C          62.4823   90.2198   10.5695 C.ar    1  UNL1        0.2416
      2 N          63.1224   91.4683   11.1000 N.ar    1  UNL1       -0.1932
      3 C          63.8302   91.1203   12.3759 C.ar    1  UNL1        0.1667
      4 C          64.6330   91.9470   13.3360 C.ar    1  UNL1        0.0389
      5 C          65.2332   91.3101   14.5542 C.ar    1  UNL1        0.0047
      6 C          65.0306   89.8464   14.8123 C.ar    1  UNL1        0.0193
      7 C          64.2278   89.0196   13.8521 C.ar    1  UNL1        0.0845
      8 N          63.6276   89.6566   12.6339 N.ar    1  UNL1       -0.2095
      9 N          62.7945   89.1001   11.5175 N.ar    1  UNL1       -0.1280
     10 C          64.0251   87.5560   14.1102 C.ar    1  UNL1        0.0177
     11 C          64.3126   86.9869   15.4679 C.ar    1  UNL1        0.0012
     12 C          64.1100   85.5233   15.7260 C.ar    1  UNL1       -0.0029
     13 C          63.6199   84.6286   14.6263 C.ar    1  UNL1       -0.0061
     14 C          63.3324   85.1976   13.2685 C.ar    1  UNL1       -0.0029
     15 C          63.5351   86.6613   13.0105 C.ar    1  UNL1        0.0012
     16 C          63.4173   83.1649   14.8843 C.3     1  UNL1        0.0992
     17 N          63.2505   82.2166   13.7342 N.3     1  UNL1       -0.2659
     18 C          63.5805   82.6626   12.3405 C.3     1  UNL1        0.0980
     19 C          63.4138   81.7143   11.1903 C.3     1  UNL1        0.1681
     20 S          62.9171   80.3200   11.4338 S.O2    1  UNL1       -0.0072
     21 O          62.4826   78.9107   11.1603 O.2     1  UNL1       -0.1729
     22 O          63.0962   80.2765    9.9452 O.2     1  UNL1       -0.1729
     23 C          62.5872   79.8740   12.8274 C.3     1  UNL1        0.1681
     24 C          62.7539   80.8223   13.9776 C.3     1  UNL1        0.0980
     25 O          60.3139   88.1575   10.3568 O.2     1  UNL1       -0.2747
     26 C          60.5881   89.0791    9.2054 C.2     1  UNL1        0.2278
     27 N          61.6722   90.1102    9.3118 N.am    1  UNL1       -0.2528
     28 H          61.8522   90.7150    8.5561 H       1  UNL1        0.1578
     29 C          59.7780   88.9695    7.9477 C.3     1  UNL1        0.0769
     30 C          58.7899   88.2248    7.0998 C.3     1  UNL1        0.0096
     31 C          59.3631   89.5244    6.6174 C.3     1  UNL1        0.0096
@<TRIPOS>BOND
     1    25    26    2
     2    26    27   am
     3    27     1    1
     4     1     2   ar
     5     2     3   ar
     6     3     4   ar
     7     4     5   ar
     8     5     6   ar
     9     6     7   ar
    10     7    10    1
    11    10    11   ar
    12    11    12   ar
    13    12    13   ar
    14    13    16    1
    15    16    17    1
    16    17    18    1
    17    18    19    1
    18    19    20    1
    19    20    21    2
    20    20    22    2
    21    20    23    1
    22    23    24    1
    23    13    14   ar
    24    14    15   ar
    25     7     8   ar
    26     8     9   ar
    27    26    29    1
    28    29    30    1
    29    30    31    1
    30     9     1   ar
    31    31    29    1
    32     8     3   ar
    33    15    10   ar
    34    24    17    1
    35    27    28    1
@<TRIPOS>MOLECULE
*****
 31 35 0 0 0
SMALL
GASTEIGER

@<TRIPOS>ATOM
      1 C          62.2244   84.8724   10.7465 C.ar    1  UNL1        0.2416
      2 N          61.4286   85.1739    9.5113 N.ar    1  UNL1       -0.1932
      3 C          61.2715   86.6624    9.4129 C.ar    1  UNL1        0.1667
      4 C          60.5825   87.5346    8.4057 C.ar    1  UNL1        0.0389
      5 C          60.5921   89.0252    8.5730 C.ar    1  UNL1        0.0047
      6 C          61.2907   89.6436    9.7475 C.ar    1  UNL1        0.0193
      7 C          61.9797   88.7714   10.7547 C.ar    1  UNL1        0.0845
      8 N          61.9701   87.2808   10.5875 N.ar    1  UNL1       -0.2095
      9 N          62.5590   86.1745   11.4116 N.ar    1  UNL1       -0.1280
     10 C          62.6784   89.3899   11.9292 C.ar    1  UNL1        0.0177
     11 C          62.8433   90.8788   12.0050 C.ar    1  UNL1        0.0012
     12 C          63.5420   91.4972   13.1795 C.ar    1  UNL1       -0.0029
     13 C          64.0756   90.6267   14.2782 C.ar    1  UNL1       -0.0061
     14 C          63.9106   89.1378   14.2025 C.ar    1  UNL1       -0.0029
     15 C          63.2120   88.5193   13.0280 C.ar    1  UNL1        0.0012
     16 C          64.7743   91.2451   15.4527 C.3     1  UNL1        0.0992
     17 N          66.1617   91.7934   15.2966 N.3     1  UNL1       -0.2659
     18 C          66.6662   92.8391   16.2464 C.3     1  UNL1        0.0980
     19 C          68.0536   93.3874   16.0903 C.3     1  UNL1        0.1681
     20 S          68.9366   92.8900   14.9844 S.O2    1  UNL1       -0.0072
     21 O          70.1399   92.7373   14.1020 O.2     1  UNL1       -0.1729
     22 O          69.8589   93.8827   15.6277 O.2     1  UNL1       -0.1729
     23 C          68.4322   91.8443   14.0347 C.3     1  UNL1        0.1681
     24 C          67.0447   91.2960   14.1908 C.3     1  UNL1        0.0980
     25 O          62.2957   84.2894   13.6885 O.2     1  UNL1       -0.2747
     26 C          62.6523   83.2167   12.7024 C.2     1  UNL1        0.2278
     27 N          62.6166   83.5082   11.2315 N.am    1  UNL1       -0.2528
     28 H          62.8506   82.8042   10.5843 H       1  UNL1        0.1578
     29 C          63.0445   81.8525   13.1874 C.3     1  UNL1        0.0769
     30 C          62.7246   80.3993   13.3761 C.3     1  UNL1        0.0096
     31 C          64.0438   80.9431   13.8387 C.3     1  UNL1        0.0096
@<TRIPOS>BOND
     1    25    26    2
     2    26    27   am
     3    27     1    1
     4     1     2   ar
     5     2     3   ar
     6     3     4   ar
     7     4     5   ar
     8     5     6   ar
     9     6     7   ar
    10     7    10    1
    11    10    11   ar
    12    11    12   ar
    13    12    13   ar
    14    13    16    1
    15    16    17    1
    16    17    18    1
    17    18    19    1
    18    19    20    1
    19    20    21    2
    20    20    22    2
    21    20    23    1
    22    23    24    1
    23    13    14   ar
    24    14    15   ar
    25     7     8   ar
    26     8     9   ar
    27    26    29    1
    28    29    30    1
    29    30    31    1
    30     9     1   ar
    31    31    29    1
    32     8     3   ar
    33    15    10   ar
    34    24    17    1
    35    27    28    1
@<TRIPOS>MOLECULE
*****
 31 35 0 0 0
SMALL
GASTEIGER

@<TRIPOS>ATOM
      1 C          62.9044   90.7848   10.5192 C.ar    1  UNL1        0.2416
      2 N          63.7216   92.0300   10.6973 N.ar    1  UNL1       -0.1932
      3 C          64.4450   91.9264   12.0072 C.ar    1  UNL1        0.1667
      4 C          65.3929   92.8550   12.7064 C.ar    1  UNL1        0.0389
      5 C          65.9708   92.4745   14.0373 C.ar    1  UNL1        0.0047
      6 C          65.6007   91.1652   14.6689 C.ar    1  UNL1        0.0193
      7 C          64.6528   90.2365   13.9696 C.ar    1  UNL1        0.0845
      8 N          64.0750   90.6171   12.6388 N.ar    1  UNL1       -0.2095
      9 N          63.1228   89.9116   11.7192 N.ar    1  UNL1       -0.1280
     10 C          64.2827   88.9273   14.6012 C.ar    1  UNL1        0.0177
     11 C          63.6524   88.9027   15.9621 C.ar    1  UNL1        0.0012
     12 C          63.2823   87.5934   16.5937 C.ar    1  UNL1       -0.0029
     13 C          63.5426   86.3088   15.8644 C.ar    1  UNL1       -0.0061
     14 C          64.1729   86.3334   14.5035 C.ar    1  UNL1       -0.0029
     15 C          64.5429   87.6426   13.8719 C.ar    1  UNL1        0.0012
     16 C          63.1725   84.9995   16.4960 C.3     1  UNL1        0.0992
     17 N          63.0181   83.7737   15.6456 N.3     1  UNL1       -0.2659
     18 C          61.6488   83.2778   15.2862 C.3     1  UNL1        0.0980
     19 C          61.4943   82.0519   14.4357 C.3     1  UNL1        0.1681
     20 S          62.7092   81.3218   13.9447 S.O2    1  UNL1       -0.0072
     21 O          63.5499   80.2958   13.2443 O.2     1  UNL1       -0.1729
     22 O          61.6319   80.4696   13.3420 O.2     1  UNL1       -0.1729
     23 C          64.0785   81.8176   14.3040 C.3     1  UNL1        0.1681
     24 C          64.2329   83.0436   15.1545 C.3     1  UNL1        0.0980
     25 O          60.8115   88.6477   10.7495 O.2     1  UNL1       -0.2747
     26 C          60.9771   89.3998    9.4622 C.2     1  UNL1        0.2278
     27 N          62.0235   90.4683    9.3471 N.am    1  UNL1       -0.2528
     28 H          62.1322   90.9619    8.5023 H       1  UNL1        0.1578
     29 C          60.0962   89.0834    8.2901 C.3     1  UNL1        0.0769
     30 C          59.4894   89.4796    6.9768 C.3     1  UNL1        0.0096
     31 C          59.1773   88.1391    7.5733 C.3     1  UNL1        0.0096
@<TRIPOS>BOND
     1    25    26    2
     2    26    27   am
     3    27     1    1
     4     1     2   ar
     5     2     3   ar
     6     3     4   ar
     7     4     5   ar
     8     5     6   ar
     9     6     7   ar
    10     7    10    1
    11    10    11   ar
    12    11    12   ar
    13    12    13   ar
    14    13    16    1
    15    16    17    1
    16    17    18    1
    17    18    19    1
    18    19    20    1
    19    20    21    2
    20    20    22    2
    21    20    23    1
    22    23    24    1
    23    13    14   ar
    24    14    15   ar
    25     7     8   ar
    26     8     9   ar
    27    26    29    1
    28    29    30    1
    29    30    31    1
    30     9     1   ar
    31    31    29    1
    32     8     3   ar
    33    15    10   ar
    34    24    17    1
    35    27    28    1
