@<TRIPOS>MOLECULE
*****
 36 40 0 0 0
SMALL
GASTEIGER

@<TRIPOS>ATOM
      1 N          65.2299   92.3605   12.0204 N.3     1  UNL1       -0.2679
      2 C          66.2957   92.7249   11.0298 C.3     1  UNL1        0.0978
      3 C          67.3287   91.7123   10.6332 C.3     1  UNL1        0.0224
      4 C          68.3946   92.0767    9.6425 C.3     1  UNL1        0.0065
      5 C          68.4273   93.4537    9.0486 C.3     1  UNL1        0.0277
      6 C          67.3943   94.4663    9.4453 C.ar    1  UNL1       -0.0073
      7 C          67.4270   95.8433    8.8515 C.ar    1  UNL1       -0.0015
      8 C          66.3940   96.8560    9.2482 C.ar    1  UNL1        0.0203
      9 C          65.3282   96.4916   10.2387 C.ar    1  UNL1        0.0985
     10 N          65.2954   95.1146   10.8326 N.ar    1  UNL1       -0.2471
     11 C          66.3285   94.1020   10.4359 C.ar    1  UNL1        0.0695
     12 C          65.5471   92.3302   13.4862 C.3     1  UNL1        0.0886
     13 C          63.0709   86.8013   16.7344 C.ar    1  UNL1       -0.0003
     14 C          63.8654   86.3558   15.5427 C.ar    1  UNL1       -0.0003
     15 C          64.5196   87.3725   14.6547 C.ar    1  UNL1       -0.0045
     16 C          64.3792   88.8347   14.9585 C.ar    1  UNL1       -0.0234
     17 C          63.5846   89.2802   16.1501 C.ar    1  UNL1       -0.0103
     18 C          62.9305   88.2635   17.0381 C.ar    1  UNL1       -0.0032
     19 C          63.4442   90.7424   16.4539 C.3     1  UNL1        0.0953
     20 N          64.0983   91.7591   15.5659 N.3     1  UNL1       -0.2934
     21 C          64.8929   91.3135   14.3742 C.3     1  UNL1        0.0748
     22 C          65.0333   89.8513   14.0705 C.3     1  UNL1        0.0432
     23 H          64.7301   92.3015   16.1550 H       1  UNL1        0.1236
     24 C          63.8469   92.0266   11.5453 C.3     1  UNL1        0.0725
     25 C          63.5881   90.7253   10.8456 C.3     1  UNL1        0.0188
     26 C          62.4525   89.8498   11.2860 C.3     1  UNL1        0.0185
     27 C          62.6144   88.3586   11.2936 C.3     1  UNL1        0.0686
     28 N          61.4163   87.4750   11.4778 N.3     1  UNL1       -0.2975
     29 H          60.6043   88.0131   11.1751 H       1  UNL1        0.1232
     30 C          61.3451   86.1517   10.7752 C.3     1  UNL1        0.0686
     31 C          62.3551   85.0854   11.0802 C.3     1  UNL1        0.0175
     32 C          63.0903   84.4070    9.9625 C.3     1  UNL1        0.0130
     33 C          64.1002   83.3408   10.2674 C.3     1  UNL1        0.0576
     34 S          64.3751   82.9528   11.6900 S.3     1  UNL1       -0.1403
     35 C          63.6399   83.6312   12.8077 C.3     1  UNL1        0.0576
     36 C          62.6299   84.6975   12.5028 C.3     1  UNL1        0.0130
@<TRIPOS>BOND
     1    13    14   ar
     2    14    15   ar
     3    15    16   ar
     4    16    17   ar
     5    17    18   ar
     6    17    19    1
     7    19    20    1
     8    20    21    1
     9    21    12    1
    10    12     1    1
    11     1    24    1
    12    24    25    1
    13    25    26    1
    14    26    27    1
    15    27    28    1
    16    28    30    1
    17    30    31    1
    18    31    32    1
    19    32    33    1
    20    33    34    1
    21    34    35    1
    22    35    36    1
    23     2     1    1
    24     2     3    1
    25     3     4    1
    26     4     5    1
    27     5     6    1
    28     6     7   ar
    29     7     8   ar
    30     8     9   ar
    31     9    10   ar
    32    10    11   ar
    33    21    22    1
    34    18    13   ar
    35    36    31    1
    36    11     2    1
    37    22    16    1
    38    11     6   ar
    39    20    23    1
    40    28    29    1
@<TRIPOS>MOLECULE
*****
 36 40 0 0 0
SMALL
GASTEIGER

@<TRIPOS>ATOM
      1 N          63.4480   88.8739   14.0219 N.3     1  UNL1       -0.2679
      2 C          63.2720   89.5778   12.7091 C.3     1  UNL1        0.0978
      3 C          63.9894   90.8690   12.4483 C.3     1  UNL1        0.0224
      4 C          63.8134   91.5729   11.1354 C.3     1  UNL1        0.0065
      5 C          62.9200   90.9855   10.0834 C.3     1  UNL1        0.0277
      6 C          62.2026   89.6943   10.3442 C.ar    1  UNL1       -0.0073
      7 C          61.3093   89.1069    9.2921 C.ar    1  UNL1       -0.0015
      8 C          60.5919   87.8156    9.5529 C.ar    1  UNL1        0.0203
      9 C          60.7678   87.1118   10.8658 C.ar    1  UNL1        0.0985
     10 N          61.6612   87.6992   11.9178 N.ar    1  UNL1       -0.2471
     11 C          62.3786   88.9904   11.6570 C.ar    1  UNL1        0.0695
     12 C          64.3600   87.6870   14.1203 C.3     1  UNL1        0.0886
     13 C          62.0015   81.2872   13.2658 C.ar    1  UNL1       -0.0003
     14 C          62.5194   81.7989   11.9544 C.ar    1  UNL1       -0.0003
     15 C          63.0946   83.1812   11.8630 C.ar    1  UNL1       -0.0045
     16 C          63.1520   84.0518   13.0830 C.ar    1  UNL1       -0.0234
     17 C          62.6342   83.5402   14.3945 C.ar    1  UNL1       -0.0103
     18 C          62.0589   82.1579   14.4859 C.ar    1  UNL1       -0.0032
     19 C          62.6916   84.4108   15.6147 C.3     1  UNL1        0.0953
     20 N          63.2669   85.7931   15.5233 N.3     1  UNL1       -0.2934
     21 C          63.7847   86.3048   14.2117 C.3     1  UNL1        0.0748
     22 C          63.7273   85.4341   12.9916 C.3     1  UNL1        0.0432
     23 H          64.0442   85.8327   16.1824 H       1  UNL1        0.1236
     24 C          62.7120   89.3569   15.2365 C.3     1  UNL1        0.0725
     25 C          63.4685   89.9696   16.3776 C.3     1  UNL1        0.0188
     26 C          63.9681   91.3802   16.2749 C.3     1  UNL1        0.0185
     27 C          65.2624   91.6683   15.5734 C.3     1  UNL1        0.0686
     28 N          65.6182   93.0782   15.2051 N.3     1  UNL1       -0.2975
     29 H          65.6871   93.6020   16.0776 H       1  UNL1        0.1232
     30 C          66.8729   93.3575   14.4321 C.3     1  UNL1        0.0686
     31 C          66.8305   93.4313   12.9345 C.3     1  UNL1        0.0175
     32 C          66.2418   94.6344   12.2593 C.3     1  UNL1        0.0130
     33 C          66.1994   94.7082   10.7617 C.3     1  UNL1        0.0576
     34 S          66.7457   93.5790    9.9394 S.3     1  UNL1       -0.1403
     35 C          67.3344   92.3759   10.6146 C.3     1  UNL1        0.0576
     36 C          67.3768   92.3021   12.1122 C.3     1  UNL1        0.0130
@<TRIPOS>BOND
     1    13    14   ar
     2    14    15   ar
     3    15    16   ar
     4    16    17   ar
     5    17    18   ar
     6    17    19    1
     7    19    20    1
     8    20    21    1
     9    21    12    1
    10    12     1    1
    11     1    24    1
    12    24    25    1
    13    25    26    1
    14    26    27    1
    15    27    28    1
    16    28    30    1
    17    30    31    1
    18    31    32    1
    19    32    33    1
    20    33    34    1
    21    34    35    1
    22    35    36    1
    23     2     1    1
    24     2     3    1
    25     3     4    1
    26     4     5    1
    27     5     6    1
    28     6     7   ar
    29     7     8   ar
    30     8     9   ar
    31     9    10   ar
    32    10    11   ar
    33    21    22    1
    34    18    13   ar
    35    36    31    1
    36    11     2    1
    37    22    16    1
    38    11     6   ar
    39    20    23    1
    40    28    29    1
@<TRIPOS>MOLECULE
*****
 36 40 0 0 0
SMALL
GASTEIGER

@<TRIPOS>ATOM
      1 N          63.2911   89.8846   13.0763 N.3     1  UNL1       -0.2679
      2 C          64.0512   90.9974   12.4176 C.3     1  UNL1        0.0978
      3 C          63.8799   91.2568   10.9502 C.3     1  UNL1        0.0224
      4 C          64.6401   92.3696   10.2915 C.3     1  UNL1        0.0065
      5 C          65.5714   93.2230   11.1002 C.3     1  UNL1        0.0277
      6 C          65.7427   92.9637   12.5677 C.ar    1  UNL1       -0.0073
      7 C          66.6741   93.8171   13.3764 C.ar    1  UNL1       -0.0015
      8 C          66.8454   93.5578   14.8439 C.ar    1  UNL1        0.0203
      9 C          66.0853   92.4450   15.5026 C.ar    1  UNL1        0.0985
     10 N          65.1539   91.5916   14.6938 N.ar    1  UNL1       -0.2471
     11 C          64.9826   91.8509   13.2264 C.ar    1  UNL1        0.0695
     12 C          61.8405   89.6753   12.7567 C.3     1  UNL1        0.0886
     13 C          61.1486   85.5389    7.3105 C.ar    1  UNL1       -0.0003
     14 C          62.4293   85.2088    8.0182 C.ar    1  UNL1       -0.0003
     15 C          62.8238   85.9701    9.2490 C.ar    1  UNL1       -0.0045
     16 C          61.9376   87.0614    9.7721 C.ar    1  UNL1       -0.0234
     17 C          60.6569   87.3915    9.0644 C.ar    1  UNL1       -0.0103
     18 C          60.2624   86.6302    7.8336 C.ar    1  UNL1       -0.0032
     19 C          59.7707   88.4828    9.5875 C.3     1  UNL1        0.0953
     20 N          60.1652   89.2441   10.8183 N.3     1  UNL1       -0.2934
     21 C          61.4460   88.9140   11.5259 C.3     1  UNL1        0.0748
     22 C          62.3321   87.8227   11.0028 C.3     1  UNL1        0.0432
     23 H          59.4134   89.1182   11.4960 H       1  UNL1        0.1236
     24 C          63.9815   88.9812   14.0546 C.3     1  UNL1        0.0725
     25 C          63.9493   87.4949   13.8547 C.3     1  UNL1        0.0188
     26 C          64.5998   86.5890   14.8577 C.3     1  UNL1        0.0185
     27 C          63.7599   85.6677   15.6919 C.3     1  UNL1        0.0686
     28 N          62.6108   84.9310   15.0699 N.3     1  UNL1       -0.2975
     29 H          62.4165   85.3871   14.1785 H       1  UNL1        0.1232
     30 C          62.7257   83.4621   14.7887 C.3     1  UNL1        0.0686
     31 C          63.0878   82.9880   13.4124 C.3     1  UNL1        0.0175
     32 C          64.0568   83.7735   12.5794 C.3     1  UNL1        0.0130
     33 C          64.4189   83.2994   11.2031 C.3     1  UNL1        0.0576
     34 S          63.8118   82.0399   10.6598 S.3     1  UNL1       -0.1403
     35 C          62.8428   81.2545   11.4928 C.3     1  UNL1        0.0576
     36 C          62.4807   81.7286   12.8691 C.3     1  UNL1        0.0130
@<TRIPOS>BOND
     1    13    14   ar
     2    14    15   ar
     3    15    16   ar
     4    16    17   ar
     5    17    18   ar
     6    17    19    1
     7    19    20    1
     8    20    21    1
     9    21    12    1
    10    12     1    1
    11     1    24    1
    12    24    25    1
    13    25    26    1
    14    26    27    1
    15    27    28    1
    16    28    30    1
    17    30    31    1
    18    31    32    1
    19    32    33    1
    20    33    34    1
    21    34    35    1
    22    35    36    1
    23     2     1    1
    24     2     3    1
    25     3     4    1
    26     4     5    1
    27     5     6    1
    28     6     7   ar
    29     7     8   ar
    30     8     9   ar
    31     9    10   ar
    32    10    11   ar
    33    21    22    1
    34    18    13   ar
    35    36    31    1
    36    11     2    1
    37    22    16    1
    38    11     6   ar
    39    20    23    1
    40    28    29    1
@<TRIPOS>MOLECULE
*****
 36 40 0 0 0
SMALL
GASTEIGER

@<TRIPOS>ATOM
      1 N          64.2595   90.1971   14.9208 N.3     1  UNL1       -0.2679
      2 C          65.1752   91.3668   14.7131 C.3     1  UNL1        0.0978
      3 C          65.9883   91.8952   15.8575 C.3     1  UNL1        0.0224
      4 C          66.9041   93.0650   15.6498 C.3     1  UNL1        0.0065
      5 C          67.0067   93.7063   14.2977 C.3     1  UNL1        0.0277
      6 C          66.1937   93.1778   13.1533 C.ar    1  UNL1       -0.0073
      7 C          66.2963   93.8191   11.8012 C.ar    1  UNL1       -0.0015
      8 C          65.4833   93.2907   10.6568 C.ar    1  UNL1        0.0203
      9 C          64.5675   92.1210   10.8644 C.ar    1  UNL1        0.0985
     10 N          64.4649   91.4797   12.2165 N.ar    1  UNL1       -0.2471
     11 C          65.2779   92.0081   13.3609 C.ar    1  UNL1        0.0695
     12 C          64.2773   89.0498   13.9545 C.3     1  UNL1        0.0886
     13 C          59.8787   87.2954    8.9722 C.ar    1  UNL1       -0.0003
     14 C          60.9650   86.2642    9.0537 C.ar    1  UNL1       -0.0003
     15 C          62.0619   86.4089   10.0665 C.ar    1  UNL1       -0.0045
     16 C          62.0726   87.5847   10.9977 C.ar    1  UNL1       -0.0234
     17 C          60.9864   88.6158   10.9162 C.ar    1  UNL1       -0.0103
     18 C          59.8894   88.4712    9.9034 C.ar    1  UNL1       -0.0032
     19 C          60.9970   89.7917   11.8475 C.3     1  UNL1        0.0953
     20 N          62.0940   89.9364   12.8603 N.3     1  UNL1       -0.2934
     21 C          63.1803   88.9052   12.9418 C.3     1  UNL1        0.0748
     22 C          63.1696   87.7293   12.0105 C.3     1  UNL1        0.0432
     23 H          61.6468   89.9660   13.7765 H       1  UNL1        0.1236
     24 C          63.3259   90.1746   16.0946 C.3     1  UNL1        0.0725
     25 C          62.5561   88.9282   16.4169 C.3     1  UNL1        0.0188
     26 C          63.1585   87.8847   17.3104 C.3     1  UNL1        0.0185
     27 C          62.4291   86.5974   17.5577 C.3     1  UNL1        0.0686
     28 N          62.2228   85.6246   16.4347 N.3     1  UNL1       -0.2975
     29 H          61.6328   86.0912   15.7457 H       1  UNL1        0.1232
     30 C          63.4043   85.0751   15.6918 C.3     1  UNL1        0.0686
     31 C          63.1964   84.1274   14.5478 C.3     1  UNL1        0.0175
     32 C          62.4282   82.8563   14.7570 C.3     1  UNL1        0.0130
     33 C          62.2203   81.9086   13.6130 C.3     1  UNL1        0.0576
     34 S          62.7806   82.2322   12.2597 S.3     1  UNL1       -0.1403
     35 C          63.5489   83.5034   12.0506 C.3     1  UNL1        0.0576
     36 C          63.7568   84.4510   13.1946 C.3     1  UNL1        0.0130
@<TRIPOS>BOND
     1    13    14   ar
     2    14    15   ar
     3    15    16   ar
     4    16    17   ar
     5    17    18   ar
     6    17    19    1
     7    19    20    1
     8    20    21    1
     9    21    12    1
    10    12     1    1
    11     1    24    1
    12    24    25    1
    13    25    26    1
    14    26    27    1
    15    27    28    1
    16    28    30    1
    17    30    31    1
    18    31    32    1
    19    32    33    1
    20    33    34    1
    21    34    35    1
    22    35    36    1
    23     2     1    1
    24     2     3    1
    25     3     4    1
    26     4     5    1
    27     5     6    1
    28     6     7   ar
    29     7     8   ar
    30     8     9   ar
    31     9    10   ar
    32    10    11   ar
    33    21    22    1
    34    18    13   ar
    35    36    31    1
    36    11     2    1
    37    22    16    1
    38    11     6   ar
    39    20    23    1
    40    28    29    1
@<TRIPOS>MOLECULE
*****
 36 40 0 0 0
SMALL
GASTEIGER

@<TRIPOS>ATOM
      1 N          63.3260   88.8593   13.4713 N.3     1  UNL1       -0.2679
      2 C          62.8785   89.2358   12.0900 C.3     1  UNL1        0.0978
      3 C          63.0751   90.6376   11.5940 C.3     1  UNL1        0.0224
      4 C          62.6276   91.0141   10.2126 C.3     1  UNL1        0.0065
      5 C          61.9835   89.9887    9.3274 C.3     1  UNL1        0.0277
      6 C          61.7870   88.5868    9.8235 C.ar    1  UNL1       -0.0073
      7 C          61.1429   87.5614    8.9382 C.ar    1  UNL1       -0.0015
      8 C          60.9464   86.1595    9.4343 C.ar    1  UNL1        0.0203
      9 C          61.3939   85.7830   10.8156 C.ar    1  UNL1        0.0985
     10 N          62.0379   86.8084   11.7008 N.ar    1  UNL1       -0.2471
     11 C          62.2345   88.2103   11.2047 C.ar    1  UNL1        0.0695
     12 C          63.1300   89.8159   14.6100 C.3     1  UNL1        0.0886
     13 C          68.9151   93.4059   15.5561 C.ar    1  UNL1       -0.0003
     14 C          69.0867   92.5013   14.3720 C.ar    1  UNL1       -0.0003
     15 C          67.9640   91.6024   13.9459 C.ar    1  UNL1       -0.0045
     16 C          66.6697   91.6081   14.7040 C.ar    1  UNL1       -0.0234
     17 C          66.4981   92.5126   15.8882 C.ar    1  UNL1       -0.0103
     18 C          67.6208   93.4116   16.3142 C.ar    1  UNL1       -0.0032
     19 C          65.2038   92.5183   16.6463 C.3     1  UNL1        0.0953
     20 N          64.0811   91.6194   16.2203 N.3     1  UNL1       -0.2934
     21 C          64.2527   90.7148   15.0361 C.3     1  UNL1        0.0748
     22 C          65.5470   90.7091   14.2780 C.3     1  UNL1        0.0432
     23 H          63.2827   92.2211   16.0180 H       1  UNL1        0.1236
     24 C          63.9695   87.5262   13.7140 C.3     1  UNL1        0.0725
     25 C          64.5207   87.1951   15.0691 C.3     1  UNL1        0.0188
     26 C          63.6165   86.6475   16.1333 C.3     1  UNL1        0.0185
     27 C          63.2769   85.1865   16.1502 C.3     1  UNL1        0.0686
     28 N          62.2582   84.6422   15.1931 N.3     1  UNL1       -0.2975
     29 H          62.3025   85.2218   14.3549 H       1  UNL1        0.1232
     30 C          62.3438   83.2155   14.7380 C.3     1  UNL1        0.0686
     31 C          62.8773   82.8942   13.3734 C.3     1  UNL1        0.0175
     32 C          63.8694   83.8108   12.7211 C.3     1  UNL1        0.0130
     33 C          64.4029   83.4895   11.3565 C.3     1  UNL1        0.0576
     34 S          63.9443   82.2516   10.6442 S.3     1  UNL1       -0.1403
     35 C          62.9523   81.3350   11.2966 C.3     1  UNL1        0.0576
     36 C          62.4187   81.6563   12.6612 C.3     1  UNL1        0.0130
@<TRIPOS>BOND
     1    13    14   ar
     2    14    15   ar
     3    15    16   ar
     4    16    17   ar
     5    17    18   ar
     6    17    19    1
     7    19    20    1
     8    20    21    1
     9    21    12    1
    10    12     1    1
    11     1    24    1
    12    24    25    1
    13    25    26    1
    14    26    27    1
    15    27    28    1
    16    28    30    1
    17    30    31    1
    18    31    32    1
    19    32    33    1
    20    33    34    1
    21    34    35    1
    22    35    36    1
    23     2     1    1
    24     2     3    1
    25     3     4    1
    26     4     5    1
    27     5     6    1
    28     6     7   ar
    29     7     8   ar
    30     8     9   ar
    31     9    10   ar
    32    10    11   ar
    33    21    22    1
    34    18    13   ar
    35    36    31    1
    36    11     2    1
    37    22    16    1
    38    11     6   ar
    39    20    23    1
    40    28    29    1
@<TRIPOS>MOLECULE
*****
 36 40 0 0 0
SMALL
GASTEIGER

@<TRIPOS>ATOM
      1 N          60.9134   87.5508   10.1965 N.3     1  UNL1       -0.2679
      2 C          61.8003   86.4021    9.8174 C.3     1  UNL1        0.0978
      3 C          62.1275   86.1512    8.3752 C.3     1  UNL1        0.0224
      4 C          63.0144   85.0024    7.9962 C.3     1  UNL1        0.0065
      5 C          63.5742   84.1045    9.0594 C.3     1  UNL1        0.0277
      6 C          63.2470   84.3553   10.5016 C.ar    1  UNL1       -0.0073
      7 C          63.8067   83.4574   11.5648 C.ar    1  UNL1       -0.0015
      8 C          63.4796   83.7083   13.0071 C.ar    1  UNL1        0.0203
      9 C          62.5927   84.8571   13.3861 C.ar    1  UNL1        0.0985
     10 N          62.0329   85.7550   12.3229 N.ar    1  UNL1       -0.2471
     11 C          62.3601   85.5041   10.8807 C.ar    1  UNL1        0.0695
     12 C          61.1848   88.3254   11.4521 C.3     1  UNL1        0.0886
     13 C          66.1383   92.9337   12.6671 C.ar    1  UNL1       -0.0003
     14 C          65.9563   92.0761   13.8841 C.ar    1  UNL1       -0.0003
     15 C          64.9292   90.9829   13.8845 C.ar    1  UNL1       -0.0045
     16 C          64.0841   90.7473   12.6679 C.ar    1  UNL1       -0.0234
     17 C          64.2661   91.6050   11.4508 C.ar    1  UNL1       -0.0103
     18 C          65.2932   92.6982   11.4504 C.ar    1  UNL1       -0.0032
     19 C          63.4210   91.3695   10.2341 C.3     1  UNL1        0.0953
     20 N          62.3939   90.2763   10.2345 N.3     1  UNL1       -0.2934
     21 C          62.2119   89.4186   11.4517 C.3     1  UNL1        0.0748
     22 C          63.0570   89.6541   12.6683 C.3     1  UNL1        0.0432
     23 H          62.6306   89.6495    9.4654 H       1  UNL1        0.1236
     24 C          59.7551   87.9251    9.3200 C.3     1  UNL1        0.0725
     25 C          59.8925   89.0471    8.3340 C.3     1  UNL1        0.0188
     26 C          59.3976   88.8752    6.9285 C.3     1  UNL1        0.0185
     27 C          58.9911   90.0746    6.1245 C.3     1  UNL1        0.0686
     28 N          60.0277   90.8704    5.3882 N.3     1  UNL1       -0.2975
     29 H          60.5438   90.2126    4.8040 H       1  UNL1        0.1232
     30 C          59.6110   92.0044    4.4992 C.3     1  UNL1        0.0686
     31 C          60.4741   92.4044    3.3394 C.3     1  UNL1        0.0175
     32 C          61.9141   91.9866    3.2970 C.3     1  UNL1        0.0130
     33 C          62.7772   92.3867    2.1372 C.3     1  UNL1        0.0576
     34 S          62.2003   93.2044    1.0199 S.3     1  UNL1       -0.1403
     35 C          60.7603   93.6222    1.0624 C.3     1  UNL1        0.0576
     36 C          59.8972   93.2222    2.2222 C.3     1  UNL1        0.0130
@<TRIPOS>BOND
     1    13    14   ar
     2    14    15   ar
     3    15    16   ar
     4    16    17   ar
     5    17    18   ar
     6    17    19    1
     7    19    20    1
     8    20    21    1
     9    21    12    1
    10    12     1    1
    11     1    24    1
    12    24    25    1
    13    25    26    1
    14    26    27    1
    15    27    28    1
    16    28    30    1
    17    30    31    1
    18    31    32    1
    19    32    33    1
    20    33    34    1
    21    34    35    1
    22    35    36    1
    23     2     1    1
    24     2     3    1
    25     3     4    1
    26     4     5    1
    27     5     6    1
    28     6     7   ar
    29     7     8   ar
    30     8     9   ar
    31     9    10   ar
    32    10    11   ar
    33    21    22    1
    34    18    13   ar
    35    36    31    1
    36    11     2    1
    37    22    16    1
    38    11     6   ar
    39    20    23    1
    40    28    29    1
@<TRIPOS>MOLECULE
*****
 36 40 0 0 0
SMALL
GASTEIGER

@<TRIPOS>ATOM
      1 N          61.9629   87.8002   10.9998 N.3     1  UNL1       -0.2679
      2 C          62.6449   89.1308   11.1190 C.3     1  UNL1        0.0978
      3 C          62.5755   90.1132    9.9876 C.3     1  UNL1        0.0224
      4 C          63.2575   91.4439   10.1068 C.3     1  UNL1        0.0065
      5 C          64.0090   91.7921   11.3573 C.3     1  UNL1        0.0277
      6 C          64.0784   90.8098   12.4888 C.ar    1  UNL1       -0.0073
      7 C          64.8299   91.1580   13.7393 C.ar    1  UNL1       -0.0015
      8 C          64.8993   90.1756   14.8707 C.ar    1  UNL1        0.0203
      9 C          64.2173   88.8450   14.7516 C.ar    1  UNL1        0.0985
     10 N          63.4659   88.4968   13.5010 N.ar    1  UNL1       -0.2471
     11 C          63.3964   89.4791   12.3696 C.ar    1  UNL1        0.0695
     12 C          62.7626   86.5742   10.6718 C.3     1  UNL1        0.0886
     13 C          62.6727   80.4433   13.7789 C.ar    1  UNL1       -0.0003
     14 C          62.7543   80.2406   12.2949 C.ar    1  UNL1       -0.0003
     15 C          62.7886   81.4262   11.3767 C.ar    1  UNL1       -0.0045
     16 C          62.7413   82.8146   11.9425 C.ar    1  UNL1       -0.0234
     17 C          62.6596   83.0173   13.4264 C.ar    1  UNL1       -0.0103
     18 C          62.6253   81.8317   14.3446 C.ar    1  UNL1       -0.0032
     19 C          62.6123   84.4057   13.9923 C.3     1  UNL1        0.0953
     20 N          62.6466   85.5914   13.0741 N.3     1  UNL1       -0.2934
     21 C          62.7283   85.3886   11.5900 C.3     1  UNL1        0.0748
     22 C          62.7756   84.0002   11.0243 C.3     1  UNL1        0.0432
     23 H          63.4596   86.1467   13.3406 H       1  UNL1        0.1236
     24 C          60.4812   87.6955   11.2087 C.3     1  UNL1        0.0725
     25 C          59.5655   87.5558   10.0289 C.3     1  UNL1        0.0188
     26 C          59.9523   86.6727    8.8797 C.3     1  UNL1        0.0185
     27 C          59.1322   86.6740    7.6237 C.3     1  UNL1        0.0686
     28 N          58.6585   87.9715    7.0387 N.3     1  UNL1       -0.2975
     29 H          57.8144   88.2333    7.5479 H       1  UNL1        0.1232
     30 C          59.5589   89.1711    7.0471 C.3     1  UNL1        0.0686
     31 C          59.3971   90.2377    6.0050 C.3     1  UNL1        0.0175
     32 C          58.0328   90.7728    5.6851 C.3     1  UNL1        0.0130
     33 C          57.8709   91.8395    4.6429 C.3     1  UNL1        0.0576
     34 S          59.0733   92.3710    3.9207 S.3     1  UNL1       -0.1403
     35 C          60.4376   91.8359    4.2406 C.3     1  UNL1        0.0576
     36 C          60.5994   90.7693    5.2828 C.3     1  UNL1        0.0130
@<TRIPOS>BOND
     1    13    14   ar
     2    14    15   ar
     3    15    16   ar
     4    16    17   ar
     5    17    18   ar
     6    17    19    1
     7    19    20    1
     8    20    21    1
     9    21    12    1
    10    12     1    1
    11     1    24    1
    12    24    25    1
    13    25    26    1
    14    26    27    1
    15    27    28    1
    16    28    30    1
    17    30    31    1
    18    31    32    1
    19    32    33    1
    20    33    34    1
    21    34    35    1
    22    35    36    1
    23     2     1    1
    24     2     3    1
    25     3     4    1
    26     4     5    1
    27     5     6    1
    28     6     7   ar
    29     7     8   ar
    30     8     9   ar
    31     9    10   ar
    32    10    11   ar
    33    21    22    1
    34    18    13   ar
    35    36    31    1
    36    11     2    1
    37    22    16    1
    38    11     6   ar
    39    20    23    1
    40    28    29    1
@<TRIPOS>MOLECULE
*****
 36 40 0 0 0
SMALL
GASTEIGER

@<TRIPOS>ATOM
      1 N          61.6631   87.7145   11.6667 N.3     1  UNL1       -0.2679
      2 C          62.2111   86.5958   10.8312 C.3     1  UNL1        0.0978
      3 C          62.3490   86.7660    9.3473 C.3     1  UNL1        0.0224
      4 C          62.8971   85.6472    8.5118 C.3     1  UNL1        0.0065
      5 C          63.3072   84.3583    9.1602 C.3     1  UNL1        0.0277
      6 C          63.1694   84.1881   10.6441 C.ar    1  UNL1       -0.0073
      7 C          63.5796   82.8993   11.2926 C.ar    1  UNL1       -0.0015
      8 C          63.4417   82.7291   12.7765 C.ar    1  UNL1        0.0203
      9 C          62.8937   83.8478   13.6120 C.ar    1  UNL1        0.0985
     10 N          62.4835   85.1367   12.9636 N.ar    1  UNL1       -0.2471
     11 C          62.6214   85.3068   11.4796 C.ar    1  UNL1        0.0695
     12 C          62.5572   88.4401   12.6282 C.3     1  UNL1        0.0886
     13 C          66.2979   94.1552   11.8574 C.ar    1  UNL1       -0.0003
     14 C          66.4694   93.6411   13.2560 C.ar    1  UNL1       -0.0003
     15 C          65.7555   92.3952   13.6899 C.ar    1  UNL1       -0.0045
     16 C          64.8702   91.6635   12.7251 C.ar    1  UNL1       -0.0234
     17 C          64.6987   92.1777   11.3265 C.ar    1  UNL1       -0.0103
     18 C          65.4126   93.4235   10.8926 C.ar    1  UNL1       -0.0032
     19 C          63.8133   91.4459   10.3617 C.3     1  UNL1        0.0953
     20 N          63.0995   90.2001   10.7956 N.3     1  UNL1       -0.2934
     21 C          63.2710   89.6859   12.1943 C.3     1  UNL1        0.0748
     22 C          64.1563   90.4176   13.1590 C.3     1  UNL1        0.0432
     23 H          63.4013   89.4543   10.1686 H       1  UNL1        0.1236
     24 C          60.2211   88.1077   11.5409 C.3     1  UNL1        0.0725
     25 C          59.8245   89.5501   11.6516 C.3     1  UNL1        0.0188
     26 C          59.8200   90.4225   10.4314 C.3     1  UNL1        0.0185
     27 C          60.2361   89.8590    9.1050 C.3     1  UNL1        0.0686
     28 N          59.3423   88.8913    8.3875 N.3     1  UNL1       -0.2975
     29 H          58.3826   89.1678    8.5946 H       1  UNL1        0.1232
     30 C          59.4387   88.7441    6.8979 C.3     1  UNL1        0.0686
     31 C          59.2438   89.9388    6.0120 C.3     1  UNL1        0.0175
     32 C          60.4276   90.5923    5.3628 C.3     1  UNL1        0.0130
     33 C          60.2326   91.7870    4.4769 C.3     1  UNL1        0.0576
     34 S          58.8538   92.3282    4.2403 S.3     1  UNL1       -0.1403
     35 C          57.6700   91.6747    4.8895 C.3     1  UNL1        0.0576
     36 C          57.8650   90.4800    5.7754 C.3     1  UNL1        0.0130
@<TRIPOS>BOND
     1    13    14   ar
     2    14    15   ar
     3    15    16   ar
     4    16    17   ar
     5    17    18   ar
     6    17    19    1
     7    19    20    1
     8    20    21    1
     9    21    12    1
    10    12     1    1
    11     1    24    1
    12    24    25    1
    13    25    26    1
    14    26    27    1
    15    27    28    1
    16    28    30    1
    17    30    31    1
    18    31    32    1
    19    32    33    1
    20    33    34    1
    21    34    35    1
    22    35    36    1
    23     2     1    1
    24     2     3    1
    25     3     4    1
    26     4     5    1
    27     5     6    1
    28     6     7   ar
    29     7     8   ar
    30     8     9   ar
    31     9    10   ar
    32    10    11   ar
    33    21    22    1
    34    18    13   ar
    35    36    31    1
    36    11     2    1
    37    22    16    1
    38    11     6   ar
    39    20    23    1
    40    28    29    1
@<TRIPOS>MOLECULE
*****
 36 40 0 0 0
SMALL
GASTEIGER

@<TRIPOS>ATOM
      1 N          61.6510   87.8641   10.9672 N.3     1  UNL1       -0.2679
      2 C          60.8517   87.4220    9.7774 C.3     1  UNL1        0.0978
      3 C          59.4677   87.9587    9.5622 C.3     1  UNL1        0.0224
      4 C          58.6684   87.5166    8.3723 C.3     1  UNL1        0.0065
      5 C          59.2532   86.5378    7.3976 C.3     1  UNL1        0.0277
      6 C          60.6373   86.0011    7.6128 C.ar    1  UNL1       -0.0073
      7 C          61.2221   85.0223    6.6382 C.ar    1  UNL1       -0.0015
      8 C          62.6061   84.4856    6.8534 C.ar    1  UNL1        0.0203
      9 C          63.4054   84.9276    8.0432 C.ar    1  UNL1        0.0985
     10 N          62.8206   85.9064    9.0178 N.ar    1  UNL1       -0.2471
     11 C          61.4365   86.4431    8.8026 C.ar    1  UNL1        0.0695
     12 C          61.4581   89.2407   11.5308 C.3     1  UNL1        0.0886
     13 C          66.8954   92.9586   13.4962 C.ar    1  UNL1       -0.0003
     14 C          66.4468   92.1011   14.6422 C.ar    1  UNL1       -0.0003
     15 C          65.2696   91.1860   14.4783 C.ar    1  UNL1       -0.0045
     16 C          64.5410   91.1285   13.1685 C.ar    1  UNL1       -0.0234
     17 C          64.9896   91.9860   12.0224 C.ar    1  UNL1       -0.0103
     18 C          66.1668   92.9010   12.1863 C.ar    1  UNL1       -0.0032
     19 C          64.2611   91.9284   10.7125 C.3     1  UNL1        0.0953
     20 N          63.0839   91.0133   10.5486 N.3     1  UNL1       -0.2934
     21 C          62.6353   90.1558   11.6947 C.3     1  UNL1        0.0748
     22 C          63.3638   90.2134   13.0046 C.3     1  UNL1        0.0432
     23 H          63.3061   90.3827    9.7783 H       1  UNL1        0.1236
     24 C          62.6432   86.9295   11.5934 C.3     1  UNL1        0.0725
     25 C          62.1804   85.6322   12.1873 C.3     1  UNL1        0.0188
     26 C          63.0590   84.4186   12.1153 C.3     1  UNL1        0.0185
     27 C          62.7580   83.2230   12.9698 C.3     1  UNL1        0.0686
     28 N          63.0360   83.2652   14.4432 N.3     1  UNL1       -0.2975
     29 H          63.2750   82.3144   14.7250 H       1  UNL1        0.1232
     30 C          64.1153   84.1594   14.9775 C.3     1  UNL1        0.0686
     31 C          63.7557   85.4599   15.6328 C.3     1  UNL1        0.0175
     32 C          64.2540   86.7525   15.0577 C.3     1  UNL1        0.0130
     33 C          63.8944   88.0530   15.7129 C.3     1  UNL1        0.0576
     34 S          63.0365   88.0609   16.9433 S.3     1  UNL1       -0.1403
     35 C          62.5381   86.7683   17.5184 C.3     1  UNL1        0.0576
     36 C          62.8977   85.4678   16.8632 C.3     1  UNL1        0.0130
@<TRIPOS>BOND
     1    13    14   ar
     2    14    15   ar
     3    15    16   ar
     4    16    17   ar
     5    17    18   ar
     6    17    19    1
     7    19    20    1
     8    20    21    1
     9    21    12    1
    10    12     1    1
    11     1    24    1
    12    24    25    1
    13    25    26    1
    14    26    27    1
    15    27    28    1
    16    28    30    1
    17    30    31    1
    18    31    32    1
    19    32    33    1
    20    33    34    1
    21    34    35    1
    22    35    36    1
    23     2     1    1
    24     2     3    1
    25     3     4    1
    26     4     5    1
    27     5     6    1
    28     6     7   ar
    29     7     8   ar
    30     8     9   ar
    31     9    10   ar
    32    10    11   ar
    33    21    22    1
    34    18    13   ar
    35    36    31    1
    36    11     2    1
    37    22    16    1
    38    11     6   ar
    39    20    23    1
    40    28    29    1
