@<TRIPOS>MOLECULE
*****
 29 32 0 0 0
SMALL
GASTEIGER

@<TRIPOS>ATOM
      1 N          64.4442   90.4688   13.8076 N.ar    1  UNL1       -0.3028
      2 C          65.5128   91.5021   14.0081 C.ar    1  UNL1        0.0833
      3 C          65.6010   92.3263   12.7580 C.ar    1  UNL1        0.0579
      4 C          64.5869   91.8024   11.7848 C.ar    1  UNL1        0.0207
      5 C          64.2221   92.2224   10.3918 C.ar    1  UNL1        0.0016
      6 C          63.1424   91.4943    9.6475 C.ar    1  UNL1        0.0001
      7 C          62.4274   90.3463   10.2962 C.ar    1  UNL1        0.0015
      8 C          62.7922   89.9263   11.6892 C.ar    1  UNL1        0.0175
      9 C          63.8719   90.6544   12.4335 C.ar    1  UNL1        0.0642
     10 C          63.1773   87.3582   16.8025 C.ar    1  UNL1        0.0163
     11 C          63.7803   86.9385   15.4947 C.ar    1  UNL1        0.0028
     12 C          64.2025   87.9754   14.4964 C.ar    1  UNL1        0.0198
     13 C          64.0219   89.4319   14.8059 C.ar    1  UNL1        0.0916
     14 C          63.4189   89.8516   16.1137 C.ar    1  UNL1        0.1561
     15 F          63.2383   91.3082   16.4232 F       1  UNL1       -0.2026
     16 C          62.9967   88.8147   17.1120 C.ar    1  UNL1        0.0323
     17 O          62.4419   84.9265   17.3464 O.co2   1  UNL1       -0.5446
     18 C          62.7551   86.3213   17.8008 C.2     1  UNL1        0.0729
     19 O          62.6460   86.6792   19.2533 O.co2   1  UNL1       -0.5446
     20 C          66.5387   93.4732   12.5223 C.2     1  UNL1        0.1987
     21 O          67.1038   94.2313   13.6866 O.2     1  UNL1       -0.2865
     22 C          66.9112   93.8619   11.1222 C.ar    1  UNL1        0.0601
     23 C          67.7494   92.9409   10.2860 C.ar    1  UNL1        0.0615
     24 CL         68.2150   91.6312   10.8499 Cl      1  UNL1       -0.0821
     25 C          68.1219   93.3295    8.8859 C.ar    1  UNL1        0.0115
     26 C          67.6562   94.6392    8.3221 C.ar    1  UNL1        0.0017
     27 C          66.8181   95.5602    9.1583 C.ar    1  UNL1        0.0115
     28 C          66.4455   95.1716   10.5583 C.ar    1  UNL1        0.0615
     29 CL         65.6073   96.0925   11.3945 Cl      1  UNL1       -0.0821
@<TRIPOS>UNITY_ATOM_ATTR
17 1
charge -1
@<TRIPOS>BOND
     1    17    18   ar
     2    18    19   ar
     3    18    10    1
     4    10    11   ar
     5    11    12   ar
     6    12    13   ar
     7    13     1    1
     8     1     2   ar
     9     2     3   ar
    10     3    20    1
    11    20    21    2
    12    20    22    1
    13    22    23   ar
    14    23    24    1
    15    23    25   ar
    16    25    26   ar
    17    26    27   ar
    18    27    28   ar
    19    28    29    1
    20     3     4   ar
    21     4     5   ar
    22     5     6   ar
    23     6     7   ar
    24     7     8   ar
    25     8     9   ar
    26    13    14   ar
    27    14    15    1
    28    14    16   ar
    29    16    10   ar
    30     9     1   ar
    31    28    22   ar
    32     9     4   ar
@<TRIPOS>MOLECULE
*****
 29 32 0 0 0
SMALL
GASTEIGER

@<TRIPOS>ATOM
      1 N          63.4083   90.5043   11.7086 N.ar    1  UNL1       -0.3028
      2 C          64.2993   91.5735   11.1492 C.ar    1  UNL1        0.0833
      3 C          64.9990   92.2407   12.2960 C.ar    1  UNL1        0.0579
      4 C          64.5405   91.5838   13.5642 C.ar    1  UNL1        0.0207
      5 C          64.8912   91.8242   15.0027 C.ar    1  UNL1        0.0016
      6 C          64.2588   90.9915   16.0781 C.ar    1  UNL1        0.0001
      7 C          63.2757   89.9183   15.7151 C.ar    1  UNL1        0.0015
      8 C          62.9250   89.6779   14.2766 C.ar    1  UNL1        0.0175
      9 C          63.5574   90.5107   13.2012 C.ar    1  UNL1        0.0642
     10 C          60.7541   87.7593    9.3274 C.ar    1  UNL1        0.0163
     11 C          60.7221   89.2377    9.0762 C.ar    1  UNL1        0.0028
     12 C          61.6068   90.1527    9.8699 C.ar    1  UNL1        0.0198
     13 C          62.5236   89.5893   10.9149 C.ar    1  UNL1        0.0916
     14 C          62.5556   88.1108   11.1662 C.ar    1  UNL1        0.1561
     15 F          63.4723   87.5473   12.2112 F       1  UNL1       -0.2026
     16 C          61.6708   87.1958   10.3724 C.ar    1  UNL1        0.0323
     17 O          58.4046   87.1416    8.4064 O.co2   1  UNL1       -0.5446
     18 C          59.8693   86.8443    8.5337 C.2     1  UNL1        0.0729
     19 O          60.4493   85.6321    7.8672 O.co2   1  UNL1       -0.5446
     20 C          65.9843   93.3670   12.1928 C.2     1  UNL1        0.1987
     21 O          66.2548   94.2384   13.3833 O.2     1  UNL1       -0.2865
     22 C          66.6991   93.6220   10.8989 C.ar    1  UNL1        0.0601
     23 C          66.3132   94.7949   10.0473 C.ar    1  UNL1        0.0615
     24 CL         65.2124   95.7129   10.4897 Cl      1  UNL1       -0.0821
     25 C          67.0280   95.0499    8.7535 C.ar    1  UNL1        0.0115
     26 C          68.1287   94.1319    8.3112 C.ar    1  UNL1        0.0017
     27 C          68.5146   92.9589    9.1628 C.ar    1  UNL1        0.0115
     28 C          67.7999   92.7039   10.4566 C.ar    1  UNL1        0.0615
     29 CL         68.1858   91.5310   11.3082 Cl      1  UNL1       -0.0821
@<TRIPOS>UNITY_ATOM_ATTR
17 1
charge -1
@<TRIPOS>BOND
     1    17    18   ar
     2    18    19   ar
     3    18    10    1
     4    10    11   ar
     5    11    12   ar
     6    12    13   ar
     7    13     1    1
     8     1     2   ar
     9     2     3   ar
    10     3    20    1
    11    20    21    2
    12    20    22    1
    13    22    23   ar
    14    23    24    1
    15    23    25   ar
    16    25    26   ar
    17    26    27   ar
    18    27    28   ar
    19    28    29    1
    20     3     4   ar
    21     4     5   ar
    22     5     6   ar
    23     6     7   ar
    24     7     8   ar
    25     8     9   ar
    26    13    14   ar
    27    14    15    1
    28    14    16   ar
    29    16    10   ar
    30     9     1   ar
    31    28    22   ar
    32     9     4   ar
@<TRIPOS>MOLECULE
*****
 29 32 0 0 0
SMALL
GASTEIGER

@<TRIPOS>ATOM
      1 N          63.3128   90.4569   11.4829 N.ar    1  UNL1       -0.3028
      2 C          64.1636   91.5710   10.9492 C.ar    1  UNL1        0.0833
      3 C          64.8807   92.2015   12.1059 C.ar    1  UNL1        0.0579
      4 C          64.4731   91.4771   13.3546 C.ar    1  UNL1        0.0207
      5 C          64.8592   91.6600   14.7924 C.ar    1  UNL1        0.0016
      6 C          64.2762   90.7647   15.8452 C.ar    1  UNL1        0.0001
      7 C          63.3072   89.6864   15.4602 C.ar    1  UNL1        0.0015
      8 C          62.9211   89.5035   14.0223 C.ar    1  UNL1        0.0175
      9 C          63.5041   90.3989   12.9695 C.ar    1  UNL1        0.0642
     10 C          60.6531   87.7618    9.0512 C.ar    1  UNL1        0.0163
     11 C          62.0456   87.3260    9.3993 C.ar    1  UNL1        0.0028
     12 C          62.9321   88.2243   10.2098 C.ar    1  UNL1        0.0198
     13 C          62.4263   89.5585   10.6724 C.ar    1  UNL1        0.0916
     14 C          61.0337   89.9944   10.3243 C.ar    1  UNL1        0.1561
     15 F          60.5278   91.3286   10.7868 F       1  UNL1       -0.2026
     16 C          60.1472   89.0960    9.5137 C.ar    1  UNL1        0.0323
     17 O          60.3573   85.7100    7.4852 O.co2   1  UNL1       -0.5446
     18 C          59.7666   86.8634    8.2407 C.2     1  UNL1        0.0729
     19 O          58.2895   87.1184    8.1856 O.co2   1  UNL1       -0.5446
     20 C          65.8375   93.3541   12.0278 C.2     1  UNL1        0.1987
     21 O          66.0335   94.2481   13.2162 O.2     1  UNL1       -0.2865
     22 C          66.5983   93.6128   10.7611 C.ar    1  UNL1        0.0601
     23 C          67.7197   92.7007   10.3603 C.ar    1  UNL1        0.0615
     24 CL         68.0802   91.5301   11.2261 Cl      1  UNL1       -0.0821
     25 C          68.4805   92.9593    9.0937 C.ar    1  UNL1        0.0115
     26 C          68.1199   94.1300    8.2280 C.ar    1  UNL1        0.0017
     27 C          66.9986   95.0420    8.6288 C.ar    1  UNL1        0.0115
     28 C          66.2377   94.7835    9.8954 C.ar    1  UNL1        0.0615
     29 CL         65.1164   95.6955   10.2963 Cl      1  UNL1       -0.0821
@<TRIPOS>UNITY_ATOM_ATTR
17 1
charge -1
@<TRIPOS>BOND
     1    17    18   ar
     2    18    19   ar
     3    18    10    1
     4    10    11   ar
     5    11    12   ar
     6    12    13   ar
     7    13     1    1
     8     1     2   ar
     9     2     3   ar
    10     3    20    1
    11    20    21    2
    12    20    22    1
    13    22    23   ar
    14    23    24    1
    15    23    25   ar
    16    25    26   ar
    17    26    27   ar
    18    27    28   ar
    19    28    29    1
    20     3     4   ar
    21     4     5   ar
    22     5     6   ar
    23     6     7   ar
    24     7     8   ar
    25     8     9   ar
    26    13    14   ar
    27    14    15    1
    28    14    16   ar
    29    16    10   ar
    30     9     1   ar
    31    28    22   ar
    32     9     4   ar
@<TRIPOS>MOLECULE
*****
 29 32 0 0 0
SMALL
GASTEIGER

@<TRIPOS>ATOM
      1 N          62.4113   87.3621   11.4098 N.ar    1  UNL1       -0.3028
      2 C          62.7337   85.9268   11.7031 C.ar    1  UNL1        0.0833
      3 C          63.5654   85.8842   12.9506 C.ar    1  UNL1        0.0579
      4 C          63.7570   87.2932   13.4284 C.ar    1  UNL1        0.0207
      5 C          64.4888   87.8624   14.6075 C.ar    1  UNL1        0.0016
      6 C          64.5073   89.3450   14.8343 C.ar    1  UNL1        0.0001
      7 C          63.7940   90.2584   13.8820 C.ar    1  UNL1        0.0015
      8 C          63.0622   89.6891   12.7029 C.ar    1  UNL1        0.0175
      9 C          63.0437   88.2065   12.4761 C.ar    1  UNL1        0.0642
     10 C          59.9744   88.8699    7.9401 C.ar    1  UNL1        0.0163
     11 C          60.5730   89.8407    8.9143 C.ar    1  UNL1        0.0028
     12 C          61.3852   89.3381   10.0709 C.ar    1  UNL1        0.0198
     13 C          61.5990   87.8647   10.2532 C.ar    1  UNL1        0.0916
     14 C          61.0004   86.8938    9.2789 C.ar    1  UNL1        0.1561
     15 F          61.2141   85.4204    9.4612 F       1  UNL1       -0.2026
     16 C          60.1881   87.3964    8.1224 C.ar    1  UNL1        0.0323
     17 O          59.8267   90.1338    5.6751 O.co2   1  UNL1       -0.5446
     18 C          59.1622   89.3725    6.7835 C.2     1  UNL1        0.0729
     19 O          57.6854   89.1138    6.7355 O.co2   1  UNL1       -0.5446
     20 C          64.1099   84.6495   13.6055 C.2     1  UNL1        0.1987
     21 O          65.3857   84.7178   14.3914 O.2     1  UNL1       -0.2865
     22 C          63.3786   83.3463   13.4745 C.ar    1  UNL1        0.0601
     23 C          63.6219   82.4661   12.2845 C.ar    1  UNL1        0.0615
     24 CL         64.5965   82.8891   11.2256 Cl      1  UNL1       -0.0821
     25 C          62.8907   81.1630   12.1534 C.ar    1  UNL1        0.0115
     26 C          61.9161   80.7401   13.2124 C.ar    1  UNL1        0.0017
     27 C          61.6729   81.6203   14.4024 C.ar    1  UNL1        0.0115
     28 C          62.4041   82.9234   14.5335 C.ar    1  UNL1        0.0615
     29 CL         62.1608   83.8036   15.7235 Cl      1  UNL1       -0.0821
@<TRIPOS>UNITY_ATOM_ATTR
17 1
charge -1
@<TRIPOS>BOND
     1    17    18   ar
     2    18    19   ar
     3    18    10    1
     4    10    11   ar
     5    11    12   ar
     6    12    13   ar
     7    13     1    1
     8     1     2   ar
     9     2     3   ar
    10     3    20    1
    11    20    21    2
    12    20    22    1
    13    22    23   ar
    14    23    24    1
    15    23    25   ar
    16    25    26   ar
    17    26    27   ar
    18    27    28   ar
    19    28    29    1
    20     3     4   ar
    21     4     5   ar
    22     5     6   ar
    23     6     7   ar
    24     7     8   ar
    25     8     9   ar
    26    13    14   ar
    27    14    15    1
    28    14    16   ar
    29    16    10   ar
    30     9     1   ar
    31    28    22   ar
    32     9     4   ar
@<TRIPOS>MOLECULE
*****
 29 32 0 0 0
SMALL
GASTEIGER

@<TRIPOS>ATOM
      1 N          62.4104   86.7121   11.2899 N.ar    1  UNL1       -0.3028
      2 C          63.1133   87.9217   11.8311 C.ar    1  UNL1        0.0833
      3 C          62.6013   89.1236   11.0940 C.ar    1  UNL1        0.0579
      4 C          61.5820   88.6568   10.0974 C.ar    1  UNL1        0.0207
      5 C          60.7461   89.3964    9.0953 C.ar    1  UNL1        0.0016
      6 C          59.7923   88.6455    8.2142 C.ar    1  UNL1        0.0001
      7 C          59.6743   87.1550    8.3353 C.ar    1  UNL1        0.0015
      8 C          60.5103   86.4155    9.3374 C.ar    1  UNL1        0.0175
      9 C          61.4641   87.1664   10.2184 C.ar    1  UNL1        0.0642
     10 C          63.0319   82.4655   12.6431 C.ar    1  UNL1        0.0163
     11 C          62.5641   83.5032   13.6201 C.ar    1  UNL1        0.0028
     12 C          62.3570   84.9187   13.1690 C.ar    1  UNL1        0.0198
     13 C          62.6176   85.2966   11.7410 C.ar    1  UNL1        0.0916
     14 C          63.0853   84.2588   10.7640 C.ar    1  UNL1        0.1561
     15 F          63.3459   84.6367    9.3360 F       1  UNL1       -0.2026
     16 C          63.2925   82.8433   11.2151 C.ar    1  UNL1        0.0323
     17 O          63.9994   80.7688   14.3562 O.co2   1  UNL1       -0.5446
     18 C          63.2390   81.0500   13.0943 C.2     1  UNL1        0.0729
     19 O          62.6858   79.9159   12.2834 O.co2   1  UNL1       -0.5446
     20 C          63.0327   90.5431   11.3149 C.2     1  UNL1        0.1987
     21 O          62.6322   91.6093   10.3388 O.2     1  UNL1       -0.2865
     22 C          63.8649   90.8965   12.5119 C.ar    1  UNL1        0.0601
     23 C          65.1370   91.6721   12.3385 C.ar    1  UNL1        0.0615
     24 CL         65.5770   92.0943   10.9680 Cl      1  UNL1       -0.0821
     25 C          65.9691   92.0255   13.5354 C.ar    1  UNL1        0.0115
     26 C          65.5291   91.6033   14.9058 C.ar    1  UNL1        0.0017
     27 C          64.2569   90.8277   15.0792 C.ar    1  UNL1        0.0115
     28 C          63.4248   90.4743   13.8823 C.ar    1  UNL1        0.0615
     29 CL         62.1527   89.6987   14.0558 Cl      1  UNL1       -0.0821
@<TRIPOS>UNITY_ATOM_ATTR
17 1
charge -1
@<TRIPOS>BOND
     1    17    18   ar
     2    18    19   ar
     3    18    10    1
     4    10    11   ar
     5    11    12   ar
     6    12    13   ar
     7    13     1    1
     8     1     2   ar
     9     2     3   ar
    10     3    20    1
    11    20    21    2
    12    20    22    1
    13    22    23   ar
    14    23    24    1
    15    23    25   ar
    16    25    26   ar
    17    26    27   ar
    18    27    28   ar
    19    28    29    1
    20     3     4   ar
    21     4     5   ar
    22     5     6   ar
    23     6     7   ar
    24     7     8   ar
    25     8     9   ar
    26    13    14   ar
    27    14    15    1
    28    14    16   ar
    29    16    10   ar
    30     9     1   ar
    31    28    22   ar
    32     9     4   ar
@<TRIPOS>MOLECULE
*****
 29 32 0 0 0
SMALL
GASTEIGER

@<TRIPOS>ATOM
      1 N          62.4102   86.6995   11.2754 N.ar    1  UNL1       -0.3028
      2 C          63.0928   87.9121   11.8355 C.ar    1  UNL1        0.0833
      3 C          62.5795   89.1142   11.0996 C.ar    1  UNL1        0.0579
      4 C          61.5797   88.6446   10.0848 C.ar    1  UNL1        0.0207
      5 C          60.7511   89.3831    9.0758 C.ar    1  UNL1        0.0016
      6 C          59.8179   88.6292    8.1755 C.ar    1  UNL1        0.0001
      7 C          59.7132   87.1368    8.2842 C.ar    1  UNL1        0.0015
      8 C          60.5418   86.3983    9.2931 C.ar    1  UNL1        0.0175
      9 C          61.4750   87.1522   10.1934 C.ar    1  UNL1        0.0642
     10 C          63.0546   82.4496   12.6071 C.ar    1  UNL1        0.0163
     11 C          62.5526   83.4731   13.5820 C.ar    1  UNL1        0.0028
     12 C          62.3378   84.8898   13.1380 C.ar    1  UNL1        0.0198
     13 C          62.6249   85.2829   11.7193 C.ar    1  UNL1        0.0916
     14 C          63.1270   84.2593   10.7444 C.ar    1  UNL1        0.1561
     15 F          63.4142   84.6524    9.3256 F       1  UNL1       -0.2026
     16 C          63.3418   82.8427   11.1883 C.ar    1  UNL1        0.0323
     17 O          64.0420   80.7490   14.3050 O.co2   1  UNL1       -0.5446
     18 C          63.2693   81.0330   13.0510 C.2     1  UNL1        0.0729
     19 O          62.7115   79.9004   12.2410 O.co2   1  UNL1       -0.5446
     20 C          62.9934   90.5363   11.3369 C.2     1  UNL1        0.1987
     21 O          62.5425   91.6154   10.3977 O.2     1  UNL1       -0.2865
     22 C          63.8582   90.8794   12.5136 C.ar    1  UNL1        0.0601
     23 C          63.4495   90.4564   13.8935 C.ar    1  UNL1        0.0615
     24 CL         62.1760   89.6903   14.0966 Cl      1  UNL1       -0.0821
     25 C          64.3143   90.7994   15.0701 C.ar    1  UNL1        0.0115
     26 C          65.5878   91.5654   14.8669 C.ar    1  UNL1        0.0017
     27 C          65.9965   91.9885   13.4870 C.ar    1  UNL1        0.0115
     28 C          65.1317   91.6455   12.3104 C.ar    1  UNL1        0.0615
     29 CL         65.5404   92.0685   10.9305 Cl      1  UNL1       -0.0821
@<TRIPOS>UNITY_ATOM_ATTR
17 1
charge -1
@<TRIPOS>BOND
     1    17    18   ar
     2    18    19   ar
     3    18    10    1
     4    10    11   ar
     5    11    12   ar
     6    12    13   ar
     7    13     1    1
     8     1     2   ar
     9     2     3   ar
    10     3    20    1
    11    20    21    2
    12    20    22    1
    13    22    23   ar
    14    23    24    1
    15    23    25   ar
    16    25    26   ar
    17    26    27   ar
    18    27    28   ar
    19    28    29    1
    20     3     4   ar
    21     4     5   ar
    22     5     6   ar
    23     6     7   ar
    24     7     8   ar
    25     8     9   ar
    26    13    14   ar
    27    14    15    1
    28    14    16   ar
    29    16    10   ar
    30     9     1   ar
    31    28    22   ar
    32     9     4   ar
@<TRIPOS>MOLECULE
*****
 29 32 0 0 0
SMALL
GASTEIGER

@<TRIPOS>ATOM
      1 N          62.9152   87.1206   12.3365 N.ar    1  UNL1       -0.3028
      2 C          63.6896   88.1519   13.1025 C.ar    1  UNL1        0.0833
      3 C          63.2509   89.5063   12.6300 C.ar    1  UNL1        0.0579
      4 C          62.2054   89.3120   11.5721 C.ar    1  UNL1        0.0207
      5 C          61.4155   90.2872   10.7505 C.ar    1  UNL1        0.0016
      6 C          60.4182   89.7879    9.7475 C.ar    1  UNL1        0.0001
      7 C          60.2107   88.3134    9.5661 C.ar    1  UNL1        0.0015
      8 C          61.0006   87.3382   10.3877 C.ar    1  UNL1        0.0175
      9 C          61.9980   87.8375   11.3907 C.ar    1  UNL1        0.0642
     10 C          63.2799   82.6589   12.7956 C.ar    1  UNL1        0.0163
     11 C          62.7205   83.2395   11.5308 C.ar    1  UNL1        0.0028
     12 C          62.5990   84.7267   11.3778 C.ar    1  UNL1        0.0198
     13 C          63.0368   85.6334   12.4895 C.ar    1  UNL1        0.0916
     14 C          63.5963   85.0528   13.7545 C.ar    1  UNL1        0.1561
     15 F          64.0341   85.9594   14.8664 F       1  UNL1       -0.2026
     16 C          63.7178   83.5655   13.9075 C.ar    1  UNL1        0.0323
     17 O          62.9676   80.2653   11.8351 O.co2   1  UNL1       -0.5446
     18 C          63.4015   81.1717   12.9487 C.2     1  UNL1        0.0729
     19 O          63.9569   80.5909   14.2152 O.co2   1  UNL1       -0.5446
     20 C          63.7670   90.8237   13.1280 C.2     1  UNL1        0.1987
     21 O          63.0725   91.5223   14.2591 O.2     1  UNL1       -0.2865
     22 C          64.9779   91.4426   12.4948 C.ar    1  UNL1        0.0601
     23 C          64.9081   91.9577   11.0878 C.ar    1  UNL1        0.0615
     24 CL         63.6273   91.8538   10.3139 Cl      1  UNL1       -0.0821
     25 C          66.1188   92.5765   10.4546 C.ar    1  UNL1        0.0115
     26 C          67.3995   92.6804   11.2285 C.ar    1  UNL1        0.0017
     27 C          67.4694   92.1654   12.6356 C.ar    1  UNL1        0.0115
     28 C          66.2587   91.5465   13.2688 C.ar    1  UNL1        0.0615
     29 CL         66.3286   91.0314   14.6758 Cl      1  UNL1       -0.0821
@<TRIPOS>UNITY_ATOM_ATTR
17 1
charge -1
@<TRIPOS>BOND
     1    17    18   ar
     2    18    19   ar
     3    18    10    1
     4    10    11   ar
     5    11    12   ar
     6    12    13   ar
     7    13     1    1
     8     1     2   ar
     9     2     3   ar
    10     3    20    1
    11    20    21    2
    12    20    22    1
    13    22    23   ar
    14    23    24    1
    15    23    25   ar
    16    25    26   ar
    17    26    27   ar
    18    27    28   ar
    19    28    29    1
    20     3     4   ar
    21     4     5   ar
    22     5     6   ar
    23     6     7   ar
    24     7     8   ar
    25     8     9   ar
    26    13    14   ar
    27    14    15    1
    28    14    16   ar
    29    16    10   ar
    30     9     1   ar
    31    28    22   ar
    32     9     4   ar
@<TRIPOS>MOLECULE
*****
 29 32 0 0 0
SMALL
GASTEIGER

@<TRIPOS>ATOM
      1 N          62.4428   87.2800   11.4693 N.ar    1  UNL1       -0.3028
      2 C          62.7273   85.8429   11.7915 C.ar    1  UNL1        0.0833
      3 C          63.5802   85.8045   13.0248 C.ar    1  UNL1        0.0579
      4 C          63.8229   87.2178   13.4648 C.ar    1  UNL1        0.0207
      5 C          64.5931   87.7922   14.6167 C.ar    1  UNL1        0.0016
      6 C          64.6603   89.2785   14.8072 C.ar    1  UNL1        0.0001
      7 C          63.9573   90.1905   13.8458 C.ar    1  UNL1        0.0015
      8 C          63.1871   89.6161   12.6940 C.ar    1  UNL1        0.0175
      9 C          63.1199   88.1298   12.5035 C.ar    1  UNL1        0.0642
     10 C          59.9887   88.7791    8.0080 C.ar    1  UNL1        0.0163
     11 C          60.7751   87.5086    7.8754 C.ar    1  UNL1        0.0028
     12 C          61.5931   87.0090    9.0292 C.ar    1  UNL1        0.0198
     13 C          61.6248   87.7797   10.3156 C.ar    1  UNL1        0.0916
     14 C          60.8383   89.0502   10.4482 C.ar    1  UNL1        0.1561
     15 F          60.8699   89.8209   11.7347 F       1  UNL1       -0.2026
     16 C          60.0203   89.5498    9.2944 C.ar    1  UNL1        0.0323
     17 O          57.7026   88.9778    6.7898 O.co2   1  UNL1       -0.5446
     18 C          59.1707   89.2787    6.8542 C.2     1  UNL1        0.0729
     19 O          59.8208   90.0792    5.7649 O.co2   1  UNL1       -0.5446
     20 C          64.0994   84.5696   13.6996 C.2     1  UNL1        0.1987
     21 O          65.3501   84.6354   14.5250 O.2     1  UNL1       -0.2865
     22 C          63.3678   83.2687   13.5491 C.ar    1  UNL1        0.0601
     23 C          62.3623   82.8499   14.5804 C.ar    1  UNL1        0.0615
     24 CL         62.0885   83.7320   15.7623 Cl      1  UNL1       -0.0821
     25 C          61.6308   81.5491   14.4299 C.ar    1  UNL1        0.0115
     26 C          61.9047   80.6671   13.2479 C.ar    1  UNL1        0.0017
     27 C          62.9101   81.0859   12.2166 C.ar    1  UNL1        0.0115
     28 C          63.6417   82.3866   12.3671 C.ar    1  UNL1        0.0615
     29 CL         64.6471   82.8054   11.3358 Cl      1  UNL1       -0.0821
@<TRIPOS>UNITY_ATOM_ATTR
17 1
charge -1
@<TRIPOS>BOND
     1    17    18   ar
     2    18    19   ar
     3    18    10    1
     4    10    11   ar
     5    11    12   ar
     6    12    13   ar
     7    13     1    1
     8     1     2   ar
     9     2     3   ar
    10     3    20    1
    11    20    21    2
    12    20    22    1
    13    22    23   ar
    14    23    24    1
    15    23    25   ar
    16    25    26   ar
    17    26    27   ar
    18    27    28   ar
    19    28    29    1
    20     3     4   ar
    21     4     5   ar
    22     5     6   ar
    23     6     7   ar
    24     7     8   ar
    25     8     9   ar
    26    13    14   ar
    27    14    15    1
    28    14    16   ar
    29    16    10   ar
    30     9     1   ar
    31    28    22   ar
    32     9     4   ar
