@<TRIPOS>MOLECULE
*****
 41 44 0 0 0
SMALL
GASTEIGER

@<TRIPOS>ATOM
      1 N          64.0876   89.3942   13.9018 N.am    1  UNL1       -0.2927
      2 C          63.5213   89.4749   15.2885 C.2     1  UNL1        0.2508
      3 O          63.1595   90.8075   15.8746 O.2     1  UNL1       -0.2700
      4 H          64.3250   88.5197   13.5172 H       1  UNL1        0.1502
      5 C          63.3167   88.2230   16.0890 C.ar    1  UNL1        0.1068
      6 C          62.9186   88.3125   17.5324 C.ar    1  UNL1        0.0108
      7 C          62.7140   87.0606   18.3330 C.ar    1  UNL1        0.0210
      8 C          62.9075   85.7193   17.6902 C.ar    1  UNL1        0.1021
      9 N          63.3056   85.6297   16.2467 N.ar    1  UNL1       -0.2097
     10 C          63.5102   86.8816   15.4461 C.ar    1  UNL1        0.2340
     11 O          63.9083   86.7921   14.0027 O.3     1  UNL1       -0.4351
     12 C          63.7325   85.5039   13.2548 C.ar    1  UNL1        0.1576
     13 C          62.6171   85.3590   12.2623 C.ar    1  UNL1        0.0384
     14 C          62.4413   84.0708   11.5143 C.ar    1  UNL1        0.0070
     15 C          63.3809   82.9274   11.7588 C.ar    1  UNL1        0.0725
     16 C          64.4962   83.0722   12.7512 C.ar    1  UNL1        0.0183
     17 C          64.6721   84.3605   13.4992 C.ar    1  UNL1        0.0921
     18 CL         65.7874   84.5053   14.4917 Cl      1  UNL1       -0.0791
     19 C          63.2050   81.6391   11.0108 C.3     1  UNL1        0.4186
     20 F          63.0292   80.3509   10.2627 F       1  UNL1       -0.1659
     21 F          62.2638   81.1513   12.0719 F       1  UNL1       -0.1659
     22 F          64.1463   82.1268    9.9496 F       1  UNL1       -0.1659
     23 C          64.2922   90.6461   13.1012 C.3     1  UNL1        0.1789
     24 C          66.4105   94.1873   11.1599 C.3     1  UNL1        0.0975
     25 C          65.4019   93.0773   11.1327 C.3     1  UNL1        0.1111
     26 N          65.8007   92.6809   12.5234 N.am    1  UNL1       -0.2753
     27 C          65.3695   91.6157   13.4875 C.2     1  UNL1        0.2462
     28 O          66.0157   91.5201   14.8378 O.2     1  UNL1       -0.2730
     29 C          66.8092   93.7910   12.5506 C.3     1  UNL1        0.1111
     30 C          67.6147   94.8818    8.9651 C.3     1  UNL1        0.0897
     31 N          66.8416   95.2525   10.1959 N.3     1  UNL1       -0.2686
     32 C          66.4997   96.6885   10.4626 C.3     1  UNL1        0.0897
     33 C          63.4194   90.9284   11.9144 C.3     1  UNL1        0.1715
     34 O          62.9613   89.8024   11.0356 O.3     1  UNL1       -0.3467
     35 C          61.7518   89.9747   10.1653 C.3     1  UNL1        0.1687
     36 C          61.1995   88.8034    9.4084 C.ar    1  UNL1        0.0073
     37 C          59.9882   88.9749    8.5404 C.ar    1  UNL1       -0.0019
     38 C          59.4359   87.8036    7.7835 C.ar    1  UNL1       -0.0002
     39 C          60.0948   86.4607    7.8946 C.ar    1  UNL1       -0.0000
     40 C          61.3061   86.2891    8.7626 C.ar    1  UNL1       -0.0002
     41 C          61.8585   87.4604    9.5195 C.ar    1  UNL1       -0.0019
@<TRIPOS>BOND
     1    30    31    1
     2    31    32    1
     3    31    24    1
     4    24    25    1
     5    25    26    1
     6    26    27   am
     7    27    28    2
     8    27    23    1
     9    23    33    1
    10    33    34    1
    11    34    35    1
    12    35    36    1
    13    36    37   ar
    14    37    38   ar
    15    38    39   ar
    16    39    40   ar
    17    40    41   ar
    18    23     1    1
    19     1     2   am
    20     2     3    2
    21     2     5    1
    22     5     6   ar
    23     6     7   ar
    24     7     8   ar
    25     8     9   ar
    26     9    10   ar
    27    10    11    1
    28    11    12    1
    29    12    13   ar
    30    13    14   ar
    31    14    15   ar
    32    15    19    1
    33    19    20    1
    34    19    21    1
    35    19    22    1
    36    15    16   ar
    37    16    17   ar
    38    17    18    1
    39    26    29    1
    40    29    24    1
    41    41    36   ar
    42    10     5   ar
    43    17    12   ar
    44     1     4    1
@<TRIPOS>MOLECULE
*****
 41 44 0 0 0
SMALL
GASTEIGER

@<TRIPOS>ATOM
      1 N          62.5375   89.1185   11.0978 N.am    1  UNL1       -0.2927
      2 C          61.2180   89.2348   10.3941 C.2     1  UNL1        0.2508
      3 O          60.3391   90.4253   10.6401 O.2     1  UNL1       -0.2700
      4 H          63.1143   88.3371   10.9364 H       1  UNL1        0.1502
      5 C          60.7772   88.1606    9.4444 C.ar    1  UNL1        0.1068
      6 C          59.6225   88.4054    8.5188 C.ar    1  UNL1        0.0108
      7 C          59.1818   87.3313    7.5691 C.ar    1  UNL1        0.0210
      8 C          59.8958   86.0124    7.5449 C.ar    1  UNL1        0.1021
      9 N          61.0506   85.7675    8.4705 N.ar    1  UNL1       -0.2097
     10 C          61.4913   86.8417    9.4202 C.ar    1  UNL1        0.2340
     11 O          62.6460   86.5969   10.3457 O.3     1  UNL1       -0.4351
     12 C          62.7552   85.2936   11.0802 C.ar    1  UNL1        0.1576
     13 C          62.3189   85.2010   12.5124 C.ar    1  UNL1        0.0384
     14 C          62.4281   83.8978   13.2470 C.ar    1  UNL1        0.0070
     15 C          62.9735   82.6871   12.5493 C.ar    1  UNL1        0.0725
     16 C          63.4099   82.7796   11.1172 C.ar    1  UNL1        0.0183
     17 C          63.3007   84.0829   10.3826 C.ar    1  UNL1        0.0921
     18 CL         63.7370   84.1755    8.9505 Cl      1  UNL1       -0.0791
     19 C          63.0827   81.3838   13.2839 C.3     1  UNL1        0.4186
     20 F          63.1919   80.0806   14.0185 F       1  UNL1       -0.1659
     21 F          62.7340   80.6453   12.0258 F       1  UNL1       -0.1659
     22 F          63.4314   82.1222   14.5421 F       1  UNL1       -0.1659
     23 C          62.9782   90.1926   12.0476 C.3     1  UNL1        0.1789
     24 C          66.7934   92.2281   13.4958 C.3     1  UNL1        0.0975
     25 C          65.7015   91.2111   13.6487 C.3     1  UNL1        0.1111
     26 N          65.0825   91.6828   12.3664 N.am    1  UNL1       -0.2753
     27 C          63.8726   91.2971   11.5679 C.2     1  UNL1        0.2462
     28 O          63.5573   92.0159   10.2897 O.2     1  UNL1       -0.2730
     29 C          66.1744   92.6998   12.2135 C.3     1  UNL1        0.1111
     30 C          67.8596   93.5126   15.4866 C.3     1  UNL1        0.0897
     31 N          68.0032   92.6138   14.2943 N.3     1  UNL1       -0.2686
     32 C          69.3566   92.1006   13.9006 C.3     1  UNL1        0.0897
     33 C          62.5246   90.1623   13.4769 C.3     1  UNL1        0.1715
     34 O          63.3146   90.8814   14.5300 O.3     1  UNL1       -0.3467
     35 C          63.5576   90.2315   15.8599 C.3     1  UNL1        0.1687
     36 C          63.6222   88.7365   15.9634 C.ar    1  UNL1        0.0073
     37 C          62.9398   88.0332   17.0990 C.ar    1  UNL1       -0.0019
     38 C          63.0044   86.5382   17.2025 C.ar    1  UNL1       -0.0002
     39 C          63.7513   85.7465   16.1704 C.ar    1  UNL1       -0.0000
     40 C          64.4337   86.4498   15.0348 C.ar    1  UNL1       -0.0002
     41 C          64.3691   87.9449   14.9312 C.ar    1  UNL1       -0.0019
@<TRIPOS>BOND
     1    30    31    1
     2    31    32    1
     3    31    24    1
     4    24    25    1
     5    25    26    1
     6    26    27   am
     7    27    28    2
     8    27    23    1
     9    23    33    1
    10    33    34    1
    11    34    35    1
    12    35    36    1
    13    36    37   ar
    14    37    38   ar
    15    38    39   ar
    16    39    40   ar
    17    40    41   ar
    18    23     1    1
    19     1     2   am
    20     2     3    2
    21     2     5    1
    22     5     6   ar
    23     6     7   ar
    24     7     8   ar
    25     8     9   ar
    26     9    10   ar
    27    10    11    1
    28    11    12    1
    29    12    13   ar
    30    13    14   ar
    31    14    15   ar
    32    15    19    1
    33    19    20    1
    34    19    21    1
    35    19    22    1
    36    15    16   ar
    37    16    17   ar
    38    17    18    1
    39    26    29    1
    40    29    24    1
    41    41    36   ar
    42    10     5   ar
    43    17    12   ar
    44     1     4    1
@<TRIPOS>MOLECULE
*****
 41 44 0 0 0
SMALL
GASTEIGER

@<TRIPOS>ATOM
      1 N          63.1020   89.7034   11.3709 N.am    1  UNL1       -0.2927
      2 C          61.6649   89.2815   11.4521 C.2     1  UNL1        0.2508
      3 O          60.7951   89.7911   12.5629 O.2     1  UNL1       -0.2700
      4 H          63.6728   89.3689   10.6419 H       1  UNL1        0.1502
      5 C          61.0974   88.3499   10.4224 C.ar    1  UNL1        0.1068
      6 C          60.0525   88.8385    9.4636 C.ar    1  UNL1        0.0108
      7 C          59.4851   87.9069    8.4340 C.ar    1  UNL1        0.0210
      8 C          59.9625   86.4867    8.3632 C.ar    1  UNL1        0.1021
      9 N          61.0075   85.9980    9.3220 N.ar    1  UNL1       -0.2097
     10 C          61.5749   86.9296   10.3517 C.ar    1  UNL1        0.2340
     11 O          62.6199   86.4410   11.3105 O.3     1  UNL1       -0.4351
     12 C          62.6141   85.0103   11.7609 C.ar    1  UNL1        0.1576
     13 C          62.0763   84.6524   13.1148 C.ar    1  UNL1        0.0384
     14 C          62.0706   83.2217   13.5652 C.ar    1  UNL1        0.0070
     15 C          62.6025   82.1488   12.6619 C.ar    1  UNL1        0.0725
     16 C          63.1402   82.5066   11.3081 C.ar    1  UNL1        0.0183
     17 C          63.1460   83.9374   10.8576 C.ar    1  UNL1        0.0921
     18 CL         63.6837   84.2953    9.5038 Cl      1  UNL1       -0.0791
     19 C          62.5967   80.7180   13.1124 C.3     1  UNL1        0.4186
     20 F          62.5908   79.2873   13.5630 F       1  UNL1       -0.1659
     21 F          62.8549   80.2732   11.7034 F       1  UNL1       -0.1659
     22 F          62.3384   81.1628   14.5215 F       1  UNL1       -0.1659
     23 C          63.6694   90.6350   12.4006 C.3     1  UNL1        0.1789
     24 C          64.1900   86.8709   14.9218 C.3     1  UNL1        0.0975
     25 C          64.1780   87.5827   13.6015 C.3     1  UNL1        0.1111
     26 N          63.8407   88.8680   14.2975 N.am    1  UNL1       -0.2753
     27 C          63.5937   90.2801   13.8560 C.2     1  UNL1        0.2462
     28 O          63.2710   91.3374   14.8699 O.2     1  UNL1       -0.2730
     29 C          63.8527   88.1562   15.6178 C.3     1  UNL1        0.1111
     30 C          65.4241   84.6040   14.6251 C.3     1  UNL1        0.0897
     31 N          64.4370   85.4588   15.3633 N.3     1  UNL1       -0.2686
     32 C          63.6969   84.9015   16.5430 C.3     1  UNL1        0.0897
     33 C          64.3126   91.9214   11.9748 C.3     1  UNL1        0.1715
     34 O          65.3104   92.5936   12.8707 O.3     1  UNL1       -0.3467
     35 C          66.1276   93.7410   12.3554 C.3     1  UNL1        0.1687
     36 C          66.8721   93.6094   11.0600 C.ar    1  UNL1        0.0073
     37 C          66.8744   94.7430   10.0776 C.ar    1  UNL1       -0.0019
     38 C          67.6189   94.6113    8.7822 C.ar    1  UNL1       -0.0002
     39 C          68.3613   93.3460    8.4690 C.ar    1  UNL1       -0.0000
     40 C          68.3590   92.2125    9.4513 C.ar    1  UNL1       -0.0002
     41 C          67.6145   92.3441   10.7468 C.ar    1  UNL1       -0.0019
@<TRIPOS>BOND
     1    30    31    1
     2    31    32    1
     3    31    24    1
     4    24    25    1
     5    25    26    1
     6    26    27   am
     7    27    28    2
     8    27    23    1
     9    23    33    1
    10    33    34    1
    11    34    35    1
    12    35    36    1
    13    36    37   ar
    14    37    38   ar
    15    38    39   ar
    16    39    40   ar
    17    40    41   ar
    18    23     1    1
    19     1     2   am
    20     2     3    2
    21     2     5    1
    22     5     6   ar
    23     6     7   ar
    24     7     8   ar
    25     8     9   ar
    26     9    10   ar
    27    10    11    1
    28    11    12    1
    29    12    13   ar
    30    13    14   ar
    31    14    15   ar
    32    15    19    1
    33    19    20    1
    34    19    21    1
    35    19    22    1
    36    15    16   ar
    37    16    17   ar
    38    17    18    1
    39    26    29    1
    40    29    24    1
    41    41    36   ar
    42    10     5   ar
    43    17    12   ar
    44     1     4    1
@<TRIPOS>MOLECULE
*****
 41 44 0 0 0
SMALL
GASTEIGER

@<TRIPOS>ATOM
      1 N          63.4599   89.8966   11.9056 N.am    1  UNL1       -0.2927
      2 C          62.0542   89.3733   11.8958 C.2     1  UNL1        0.2508
      3 O          61.1353   89.6701   13.0437 O.2     1  UNL1       -0.2700
      4 H          64.0629   89.7018   11.1522 H       1  UNL1        0.1502
      5 C          61.5673   88.5531   10.7381 C.ar    1  UNL1        0.1068
      6 C          60.6336   89.1568    9.7313 C.ar    1  UNL1        0.0108
      7 C          60.1467   88.3366    8.5736 C.ar    1  UNL1        0.0210
      8 C          60.5936   86.9128    8.4227 C.ar    1  UNL1        0.1021
      9 N          61.5274   86.3090    9.4295 N.ar    1  UNL1       -0.2097
     10 C          62.0143   87.1292   10.5872 C.ar    1  UNL1        0.2340
     11 O          62.9480   86.5254   11.5940 O.3     1  UNL1       -0.4351
     12 C          62.8110   85.0803   11.9718 C.ar    1  UNL1        0.1576
     13 C          62.2622   84.7055   13.3166 C.ar    1  UNL1        0.0384
     14 C          62.1252   83.2603   13.6945 C.ar    1  UNL1        0.0070
     15 C          62.5370   82.1900   12.7275 C.ar    1  UNL1        0.0725
     16 C          63.0857   82.5648   11.3828 C.ar    1  UNL1        0.0183
     17 C          63.2227   84.0100   11.0049 C.ar    1  UNL1        0.0921
     18 CL         63.7715   84.3848    9.6602 Cl      1  UNL1       -0.0791
     19 C          62.4000   80.7448   13.1055 C.3     1  UNL1        0.4186
     20 F          62.2629   79.2997   13.4834 F       1  UNL1       -0.1659
     21 F          62.7647   80.3444   11.7067 F       1  UNL1       -0.1659
     22 F          62.0352   81.1452   14.5042 F       1  UNL1       -0.1659
     23 C          63.9467   90.7168   13.0633 C.3     1  UNL1        0.1789
     24 C          66.1823   93.7640   10.5113 C.3     1  UNL1        0.0975
     25 C          64.9522   92.9742   10.8473 C.3     1  UNL1        0.1111
     26 N          65.6791   92.3279   11.9892 N.am    1  UNL1       -0.2753
     27 C          65.3231   91.3124   13.0343 C.2     1  UNL1        0.2462
     28 O          66.3436   90.8925   14.0504 O.2     1  UNL1       -0.2730
     29 C          66.9092   93.1177   11.6532 C.3     1  UNL1        0.1111
     30 C          65.9240   96.1472    9.5095 C.3     1  UNL1        0.0897
     31 N          66.5382   94.7794    9.4662 N.3     1  UNL1       -0.2686
     32 C          67.5084   94.4271    8.3777 C.3     1  UNL1        0.0897
     33 C          63.0573   90.9414   14.2500 C.3     1  UNL1        0.1715
     34 O          63.5990   90.7646   15.6376 O.3     1  UNL1       -0.3467
     35 C          63.0012   89.7356   16.5507 C.3     1  UNL1        0.1687
     36 C          63.3443   88.2861   16.3738 C.ar    1  UNL1        0.0073
     37 C          64.2103   87.8548   15.2274 C.ar    1  UNL1       -0.0019
     38 C          64.5535   86.4054   15.0505 C.ar    1  UNL1       -0.0002
     39 C          64.0306   85.3871   16.0199 C.ar    1  UNL1       -0.0000
     40 C          63.1646   85.8184   17.1663 C.ar    1  UNL1       -0.0002
     41 C          62.8215   87.2679   17.3432 C.ar    1  UNL1       -0.0019
@<TRIPOS>BOND
     1    30    31    1
     2    31    32    1
     3    31    24    1
     4    24    25    1
     5    25    26    1
     6    26    27   am
     7    27    28    2
     8    27    23    1
     9    23    33    1
    10    33    34    1
    11    34    35    1
    12    35    36    1
    13    36    37   ar
    14    37    38   ar
    15    38    39   ar
    16    39    40   ar
    17    40    41   ar
    18    23     1    1
    19     1     2   am
    20     2     3    2
    21     2     5    1
    22     5     6   ar
    23     6     7   ar
    24     7     8   ar
    25     8     9   ar
    26     9    10   ar
    27    10    11    1
    28    11    12    1
    29    12    13   ar
    30    13    14   ar
    31    14    15   ar
    32    15    19    1
    33    19    20    1
    34    19    21    1
    35    19    22    1
    36    15    16   ar
    37    16    17   ar
    38    17    18    1
    39    26    29    1
    40    29    24    1
    41    41    36   ar
    42    10     5   ar
    43    17    12   ar
    44     1     4    1
@<TRIPOS>MOLECULE
*****
 41 44 0 0 0
SMALL
GASTEIGER

@<TRIPOS>ATOM
      1 N          62.9954   89.5983   10.7052 N.am    1  UNL1       -0.2927
      2 C          61.5097   89.5609   10.5025 C.2     1  UNL1        0.2508
      3 O          60.6353   90.5783   11.1736 O.2     1  UNL1       -0.2700
      4 H          63.5693   88.9305   10.2647 H       1  UNL1        0.1502
      5 C          60.8982   88.5061    9.6287 C.ar    1  UNL1        0.1068
      6 C          59.7715   88.8590    8.7036 C.ar    1  UNL1        0.0108
      7 C          59.1600   87.8042    7.8299 C.ar    1  UNL1        0.0210
      8 C          59.6753   86.3965    7.8811 C.ar    1  UNL1        0.1021
      9 N          60.8021   86.0434    8.8063 N.ar    1  UNL1       -0.2097
     10 C          61.4136   87.0983    9.6800 C.ar    1  UNL1        0.2340
     11 O          62.5403   86.7453   10.6051 O.3     1  UNL1       -0.4351
     12 C          62.6108   85.3757   11.2127 C.ar    1  UNL1        0.1576
     13 C          62.1232   85.1506   12.6134 C.ar    1  UNL1        0.0384
     14 C          62.1937   83.7810   13.2210 C.ar    1  UNL1        0.0070
     15 C          62.7518   82.6365   12.4280 C.ar    1  UNL1        0.0725
     16 C          63.2393   82.8616   11.0275 C.ar    1  UNL1        0.0183
     17 C          63.1689   84.2313   10.4198 C.ar    1  UNL1        0.0921
     18 CL         63.6564   84.4563    9.0193 Cl      1  UNL1       -0.0791
     19 C          62.8223   81.2669   13.0357 C.3     1  UNL1        0.4186
     20 F          62.8927   79.8973   13.6434 F       1  UNL1       -0.1659
     21 F          64.3010   81.2323   12.7864 F       1  UNL1       -0.1659
     22 F          61.3436   81.3015   13.2851 F       1  UNL1       -0.1659
     23 C          63.6069   90.6531   11.5790 C.3     1  UNL1        0.1789
     24 C          64.1143   87.3273   14.6576 C.3     1  UNL1        0.0975
     25 C          64.1070   87.8247   13.2425 C.3     1  UNL1        0.1111
     26 N          63.7701   89.2031   13.7286 N.am    1  UNL1       -0.2753
     27 C          63.5267   90.5295   13.0717 C.2     1  UNL1        0.2462
     28 O          63.2033   91.7323   13.9075 O.2     1  UNL1       -0.2730
     29 C          63.7774   88.7058   15.1438 C.3     1  UNL1        0.1111
     30 C          65.3427   85.0389   14.7196 C.3     1  UNL1        0.0897
     31 N          64.3576   86.0010   15.3145 N.3     1  UNL1       -0.2686
     32 C          63.6159   85.6367   16.5664 C.3     1  UNL1        0.0897
     33 C          64.2985   91.8314   10.9600 C.3     1  UNL1        0.1715
     34 O          65.2125   92.6849   11.7885 O.3     1  UNL1       -0.3467
     35 C          66.5810   92.1877   12.1488 C.3     1  UNL1        0.1687
     36 C          67.0825   92.3252   13.5558 C.ar    1  UNL1        0.0073
     37 C          66.1215   92.6206   14.6691 C.ar    1  UNL1       -0.0019
     38 C          66.6230   92.7581   16.0760 C.ar    1  UNL1       -0.0002
     39 C          68.0854   92.6003   16.3698 C.ar    1  UNL1       -0.0000
     40 C          69.0464   92.3050   15.2566 C.ar    1  UNL1       -0.0002
     41 C          68.5450   92.1674   13.8495 C.ar    1  UNL1       -0.0019
@<TRIPOS>BOND
     1    30    31    1
     2    31    32    1
     3    31    24    1
     4    24    25    1
     5    25    26    1
     6    26    27   am
     7    27    28    2
     8    27    23    1
     9    23    33    1
    10    33    34    1
    11    34    35    1
    12    35    36    1
    13    36    37   ar
    14    37    38   ar
    15    38    39   ar
    16    39    40   ar
    17    40    41   ar
    18    23     1    1
    19     1     2   am
    20     2     3    2
    21     2     5    1
    22     5     6   ar
    23     6     7   ar
    24     7     8   ar
    25     8     9   ar
    26     9    10   ar
    27    10    11    1
    28    11    12    1
    29    12    13   ar
    30    13    14   ar
    31    14    15   ar
    32    15    19    1
    33    19    20    1
    34    19    21    1
    35    19    22    1
    36    15    16   ar
    37    16    17   ar
    38    17    18    1
    39    26    29    1
    40    29    24    1
    41    41    36   ar
    42    10     5   ar
    43    17    12   ar
    44     1     4    1
@<TRIPOS>MOLECULE
*****
 41 44 0 0 0
SMALL
GASTEIGER

@<TRIPOS>ATOM
      1 N          63.8150   88.6511   12.9584 N.am    1  UNL1       -0.2927
      2 C          63.8564   87.7667   14.1692 C.2     1  UNL1        0.2508
      3 O          63.7894   88.3697   15.5411 O.2     1  UNL1       -0.2700
      4 H          63.8590   88.2553   12.0580 H       1  UNL1        0.1502
      5 C          63.9648   86.2793   14.0082 C.ar    1  UNL1        0.1068
      6 C          64.8091   85.4818   14.9574 C.ar    1  UNL1        0.0108
      7 C          64.9175   83.9944   14.7965 C.ar    1  UNL1        0.0210
      8 C          64.1817   83.3045   13.6863 C.ar    1  UNL1        0.1021
      9 N          63.3373   84.1021   12.7370 N.ar    1  UNL1       -0.2097
     10 C          63.2289   85.5895   12.8979 C.ar    1  UNL1        0.2340
     11 O          62.3846   86.3870   11.9487 O.3     1  UNL1       -0.4351
     12 C          62.2395   85.9462   10.5224 C.ar    1  UNL1        0.1576
     13 C          63.2107   84.9634    9.9386 C.ar    1  UNL1        0.0384
     14 C          63.0656   84.5226    8.5122 C.ar    1  UNL1        0.0070
     15 C          61.9493   85.0646    7.6695 C.ar    1  UNL1        0.0725
     16 C          60.9781   86.0474    8.2532 C.ar    1  UNL1        0.0183
     17 C          61.1232   86.4883    9.6797 C.ar    1  UNL1        0.0921
     18 CL         60.1520   87.4711   10.2634 Cl      1  UNL1       -0.0791
     19 C          61.8043   84.6238    6.2431 C.3     1  UNL1        0.4186
     20 F          61.6591   84.1830    4.8167 F       1  UNL1       -0.1659
     21 F          63.2967   84.6171    6.0933 F       1  UNL1       -0.1659
     22 F          60.3118   84.6305    6.3928 F       1  UNL1       -0.1659
     23 C          63.7066   90.1385   13.1193 C.3     1  UNL1        0.1789
     24 C          67.3863   92.2445   14.7987 C.3     1  UNL1        0.0975
     25 C          66.6616   91.5375   13.6920 C.3     1  UNL1        0.1111
     26 N          65.4584   91.3882   14.5751 N.am    1  UNL1       -0.2753
     27 C          64.0951   90.7827   14.4170 C.2     1  UNL1        0.2462
     28 O          63.1205   90.8215   15.5565 O.2     1  UNL1       -0.2730
     29 C          66.1831   92.0952   15.6819 C.3     1  UNL1        0.1111
     30 C          68.9672   93.9610   15.9408 C.3     1  UNL1        0.0897
     31 N          68.7495   92.8499   14.9569 N.3     1  UNL1       -0.2686
     32 C          69.8952   92.3443   14.1310 C.3     1  UNL1        0.0897
     33 C          63.2096   90.9816   11.9826 C.3     1  UNL1        0.1715
     34 O          64.1830   91.5760   11.0082 O.3     1  UNL1       -0.3467
     35 C          64.9425   92.8179   11.3699 C.3     1  UNL1        0.1687
     36 C          66.0731   93.2850   10.5019 C.ar    1  UNL1        0.0073
     37 C          67.1769   92.3381   10.1340 C.ar    1  UNL1       -0.0019
     38 C          68.3076   92.8052    9.2661 C.ar    1  UNL1       -0.0002
     39 C          68.3345   94.2191    8.7658 C.ar    1  UNL1       -0.0000
     40 C          67.2307   95.1659    9.1336 C.ar    1  UNL1       -0.0002
     41 C          66.1000   94.6988   10.0016 C.ar    1  UNL1       -0.0019
@<TRIPOS>BOND
     1    30    31    1
     2    31    32    1
     3    31    24    1
     4    24    25    1
     5    25    26    1
     6    26    27   am
     7    27    28    2
     8    27    23    1
     9    23    33    1
    10    33    34    1
    11    34    35    1
    12    35    36    1
    13    36    37   ar
    14    37    38   ar
    15    38    39   ar
    16    39    40   ar
    17    40    41   ar
    18    23     1    1
    19     1     2   am
    20     2     3    2
    21     2     5    1
    22     5     6   ar
    23     6     7   ar
    24     7     8   ar
    25     8     9   ar
    26     9    10   ar
    27    10    11    1
    28    11    12    1
    29    12    13   ar
    30    13    14   ar
    31    14    15   ar
    32    15    19    1
    33    19    20    1
    34    19    21    1
    35    19    22    1
    36    15    16   ar
    37    16    17   ar
    38    17    18    1
    39    26    29    1
    40    29    24    1
    41    41    36   ar
    42    10     5   ar
    43    17    12   ar
    44     1     4    1
@<TRIPOS>MOLECULE
*****
 41 44 0 0 0
SMALL
GASTEIGER

@<TRIPOS>ATOM
      1 N          62.8829   89.5307   10.7235 N.am    1  UNL1       -0.2927
      2 C          61.4129   89.4772   10.4299 C.2     1  UNL1        0.2508
      3 O          60.4949   90.5147   11.0053 O.2     1  UNL1       -0.2700
      4 H          63.4854   88.8498   10.3458 H       1  UNL1        0.1502
      5 C          60.8609   88.3864    9.5608 C.ar    1  UNL1        0.1068
      6 C          59.7242   88.6753    8.6257 C.ar    1  UNL1        0.0108
      7 C          59.1722   87.5845    7.7566 C.ar    1  UNL1        0.0210
      8 C          59.7568   86.2047    7.8226 C.ar    1  UNL1        0.1021
      9 N          60.8934   85.9157    8.7578 N.ar    1  UNL1       -0.2097
     10 C          61.4455   87.0066    9.6269 C.ar    1  UNL1        0.2340
     11 O          62.5821   86.7176   10.5620 O.3     1  UNL1       -0.4351
     12 C          62.6773   85.3812   11.2364 C.ar    1  UNL1        0.1576
     13 C          62.2474   85.2299   12.6655 C.ar    1  UNL1        0.0384
     14 C          62.3425   83.8935   13.3399 C.ar    1  UNL1        0.0070
     15 C          62.8675   82.7082   12.5852 C.ar    1  UNL1        0.0725
     16 C          63.2974   82.8594   11.1561 C.ar    1  UNL1        0.0183
     17 C          63.2023   84.1959   10.4817 C.ar    1  UNL1        0.0921
     18 CL         63.6322   84.3472    9.0526 Cl      1  UNL1       -0.0791
     19 C          62.9626   81.3717   13.2596 C.3     1  UNL1        0.4186
     20 F          63.0577   80.0353   13.9340 F       1  UNL1       -0.1659
     21 F          64.4448   81.3611   13.0297 F       1  UNL1       -0.1659
     22 F          61.4804   81.3823   13.4895 F       1  UNL1       -0.1659
     23 C          63.4349   90.6215   11.5926 C.3     1  UNL1        0.1789
     24 C          66.3232   91.9704   14.8536 C.3     1  UNL1        0.0975
     25 C          65.8555   91.9585   13.4285 C.3     1  UNL1        0.1111
     26 N          64.7244   91.0491   13.8072 N.am    1  UNL1       -0.2753
     27 C          63.5939   90.3976   13.0672 C.2     1  UNL1        0.2462
     28 O          62.6224   89.5222   13.8019 O.2     1  UNL1       -0.2730
     29 C          65.1921   91.0609   15.2324 C.3     1  UNL1        0.1111
     30 C          68.1844   91.8657   16.6633 C.3     1  UNL1        0.0897
     31 N          67.4537   92.6219   15.5936 N.3     1  UNL1       -0.2686
     32 C          67.8535   94.0295   15.2638 C.3     1  UNL1        0.0897
     33 C          63.8280   91.9363   10.9871 C.3     1  UNL1        0.1715
     34 O          64.9053   91.9898    9.9446 O.3     1  UNL1       -0.3467
     35 C          66.2509   92.5584   10.2851 C.3     1  UNL1        0.1687
     36 C          66.5625   93.9905    9.9659 C.ar    1  UNL1        0.0073
     37 C          67.3801   94.3282    8.7544 C.ar    1  UNL1       -0.0019
     38 C          67.6917   95.7603    8.4352 C.ar    1  UNL1       -0.0002
     39 C          67.1856   96.8548    9.3274 C.ar    1  UNL1       -0.0000
     40 C          66.3680   96.5172   10.5388 C.ar    1  UNL1       -0.0002
     41 C          66.0564   95.0850   10.8580 C.ar    1  UNL1       -0.0019
@<TRIPOS>BOND
     1    30    31    1
     2    31    32    1
     3    31    24    1
     4    24    25    1
     5    25    26    1
     6    26    27   am
     7    27    28    2
     8    27    23    1
     9    23    33    1
    10    33    34    1
    11    34    35    1
    12    35    36    1
    13    36    37   ar
    14    37    38   ar
    15    38    39   ar
    16    39    40   ar
    17    40    41   ar
    18    23     1    1
    19     1     2   am
    20     2     3    2
    21     2     5    1
    22     5     6   ar
    23     6     7   ar
    24     7     8   ar
    25     8     9   ar
    26     9    10   ar
    27    10    11    1
    28    11    12    1
    29    12    13   ar
    30    13    14   ar
    31    14    15   ar
    32    15    19    1
    33    19    20    1
    34    19    21    1
    35    19    22    1
    36    15    16   ar
    37    16    17   ar
    38    17    18    1
    39    26    29    1
    40    29    24    1
    41    41    36   ar
    42    10     5   ar
    43    17    12   ar
    44     1     4    1
@<TRIPOS>MOLECULE
*****
 41 44 0 0 0
SMALL
GASTEIGER

@<TRIPOS>ATOM
      1 N          63.4492   88.4491   12.7722 N.am    1  UNL1       -0.2927
      2 C          63.7545   87.6264   13.9887 C.2     1  UNL1        0.2508
      3 O          63.8872   88.2886   15.3281 O.2     1  UNL1       -0.2700
      4 H          63.3620   88.0145   11.8932 H       1  UNL1        0.1502
      5 C          63.9270   86.1414   13.8659 C.ar    1  UNL1        0.1068
      6 C          64.8700   85.4177   14.7807 C.ar    1  UNL1        0.0108
      7 C          65.0426   83.9327   14.6579 C.ar    1  UNL1        0.0210
      8 C          64.2722   83.1715   13.6202 C.ar    1  UNL1        0.1021
      9 N          63.3291   83.8951   12.7053 N.ar    1  UNL1       -0.2097
     10 C          63.1566   85.3801   12.8281 C.ar    1  UNL1        0.2340
     11 O          62.2136   86.1038   11.9132 O.3     1  UNL1       -0.4351
     12 C          62.1386   85.7274   10.4632 C.ar    1  UNL1        0.1576
     13 C          63.1118   84.7380    9.8938 C.ar    1  UNL1        0.0384
     14 C          63.0369   84.3616    8.4438 C.ar    1  UNL1        0.0070
     15 C          61.9888   84.9746    7.5630 C.ar    1  UNL1        0.0725
     16 C          61.0156   85.9639    8.1323 C.ar    1  UNL1        0.0183
     17 C          61.0905   86.3404    9.5824 C.ar    1  UNL1        0.0921
     18 CL         60.1174   87.3297   10.1517 Cl      1  UNL1       -0.0791
     19 C          61.9139   84.5982    6.1129 C.3     1  UNL1        0.4186
     20 F          61.8389   84.2218    4.6629 F       1  UNL1       -0.1659
     21 F          63.4053   84.7160    6.0052 F       1  UNL1       -0.1659
     22 F          60.4224   84.4804    6.2206 F       1  UNL1       -0.1659
     23 C          63.2766   89.9341   12.8951 C.3     1  UNL1        0.1789
     24 C          65.7431   93.0095   10.6028 C.3     1  UNL1        0.0975
     25 C          65.5600   92.0477   11.7392 C.3     1  UNL1        0.1111
     26 N          64.1948   91.6994   11.2245 N.am    1  UNL1       -0.2753
     27 C          63.1000   90.7729   11.6642 C.2     1  UNL1        0.2462
     28 O          61.8287   90.6855   10.8730 O.2     1  UNL1       -0.2730
     29 C          64.3779   92.6612   10.0881 C.3     1  UNL1        0.1111
     30 C          67.9911   93.4075    9.3627 C.3     1  UNL1        0.0897
     31 N          66.8378   93.9359   10.1632 N.3     1  UNL1       -0.2686
     32 C          66.7794   95.3907   10.5241 C.3     1  UNL1        0.0897
     33 C          63.2806   90.5802   14.2487 C.3     1  UNL1        0.1715
     34 O          64.1851   91.7454   14.5210 O.3     1  UNL1       -0.3467
     35 C          65.1926   91.6698   15.6297 C.3     1  UNL1        0.1687
     36 C          66.6150   92.0747   15.3794 C.ar    1  UNL1        0.0073
     37 C          67.2664   93.1052   16.2534 C.ar    1  UNL1       -0.0019
     38 C          68.6889   93.5101   16.0031 C.ar    1  UNL1       -0.0002
     39 C          69.4600   92.8845   14.8788 C.ar    1  UNL1       -0.0000
     40 C          68.8086   91.8540   14.0048 C.ar    1  UNL1       -0.0002
     41 C          67.3861   91.4491   14.2551 C.ar    1  UNL1       -0.0019
@<TRIPOS>BOND
     1    30    31    1
     2    31    32    1
     3    31    24    1
     4    24    25    1
     5    25    26    1
     6    26    27   am
     7    27    28    2
     8    27    23    1
     9    23    33    1
    10    33    34    1
    11    34    35    1
    12    35    36    1
    13    36    37   ar
    14    37    38   ar
    15    38    39   ar
    16    39    40   ar
    17    40    41   ar
    18    23     1    1
    19     1     2   am
    20     2     3    2
    21     2     5    1
    22     5     6   ar
    23     6     7   ar
    24     7     8   ar
    25     8     9   ar
    26     9    10   ar
    27    10    11    1
    28    11    12    1
    29    12    13   ar
    30    13    14   ar
    31    14    15   ar
    32    15    19    1
    33    19    20    1
    34    19    21    1
    35    19    22    1
    36    15    16   ar
    37    16    17   ar
    38    17    18    1
    39    26    29    1
    40    29    24    1
    41    41    36   ar
    42    10     5   ar
    43    17    12   ar
    44     1     4    1
@<TRIPOS>MOLECULE
*****
 41 44 0 0 0
SMALL
GASTEIGER

@<TRIPOS>ATOM
      1 N          63.7558   90.3412   13.8715 N.am    1  UNL1       -0.2927
      2 C          63.5839   88.8517   13.8299 C.2     1  UNL1        0.2508
      3 O          63.5020   88.1427   12.5105 O.2     1  UNL1       -0.2700
      4 H          63.8096   90.8065   14.7374 H       1  UNL1        0.1502
      5 C          63.4939   88.0712   15.1077 C.ar    1  UNL1        0.1068
      6 C          62.9594   88.7228   16.3485 C.ar    1  UNL1        0.0108
      7 C          62.8694   87.9422   17.6262 C.ar    1  UNL1        0.0210
      8 C          63.3138   86.5100   17.6631 C.ar    1  UNL1        0.1021
      9 N          63.8482   85.8584   16.4222 N.ar    1  UNL1       -0.2097
     10 C          63.9383   86.6389   15.1445 C.ar    1  UNL1        0.2340
     11 O          64.4727   85.9873   13.9036 O.3     1  UNL1       -0.4351
     12 C          64.0515   84.5922   13.5483 C.ar    1  UNL1        0.1576
     13 C          64.7133   83.4182   14.2070 C.ar    1  UNL1        0.0384
     14 C          64.2922   82.0232   13.8517 C.ar    1  UNL1        0.0070
     15 C          63.2092   81.8020   12.8376 C.ar    1  UNL1        0.0725
     16 C          62.5475   82.9759   12.1789 C.ar    1  UNL1        0.0183
     17 C          62.9686   84.3711   12.5342 C.ar    1  UNL1        0.0921
     18 CL         62.3069   85.5450   11.8755 Cl      1  UNL1       -0.0791
     19 C          62.7881   80.4068   12.4822 C.3     1  UNL1        0.4186
     20 F          62.3670   79.0117   12.1269 F       1  UNL1       -0.1659
     21 F          62.5891   80.0965   13.9362 F       1  UNL1       -0.1659
     22 F          62.9871   80.7171   11.0283 F       1  UNL1       -0.1659
     23 C          63.8459   91.1218   12.5938 C.3     1  UNL1        0.1789
     24 C          67.5291   92.6668   14.7945 C.3     1  UNL1        0.0975
     25 C          66.1862   91.9987   14.7781 C.3     1  UNL1        0.1111
     26 N          66.1216   92.1650   13.2888 N.am    1  UNL1       -0.2753
     27 C          65.1263   91.8102   12.2241 C.2     1  UNL1        0.2462
     28 O          65.4114   92.1437   10.7897 O.2     1  UNL1       -0.2730
     29 C          67.4645   92.8331   13.3051 C.3     1  UNL1        0.1111
     30 C          68.9476   94.4486   16.0445 C.3     1  UNL1        0.0897
     31 N          68.5243   93.0216   15.8591 N.3     1  UNL1       -0.2686
     32 C          69.0963   91.9493   16.7385 C.3     1  UNL1        0.0897
     33 C          62.6556   91.2140   11.6857 C.3     1  UNL1        0.1715
     34 O          62.5454   90.3035   10.4987 O.3     1  UNL1       -0.3467
     35 C          61.1949   89.9060    9.9811 C.3     1  UNL1        0.1687
     36 C          61.0180   88.5934    9.2771 C.ar    1  UNL1        0.0073
     37 C          59.7817   88.3372    8.4671 C.ar    1  UNL1       -0.0019
     38 C          59.6049   87.0246    7.7632 C.ar    1  UNL1       -0.0002
     39 C          60.6643   85.9680    7.8692 C.ar    1  UNL1       -0.0000
     40 C          61.9005   86.2240    8.6791 C.ar    1  UNL1       -0.0002
     41 C          62.0774   87.5367    9.3832 C.ar    1  UNL1       -0.0019
@<TRIPOS>BOND
     1    30    31    1
     2    31    32    1
     3    31    24    1
     4    24    25    1
     5    25    26    1
     6    26    27   am
     7    27    28    2
     8    27    23    1
     9    23    33    1
    10    33    34    1
    11    34    35    1
    12    35    36    1
    13    36    37   ar
    14    37    38   ar
    15    38    39   ar
    16    39    40   ar
    17    40    41   ar
    18    23     1    1
    19     1     2   am
    20     2     3    2
    21     2     5    1
    22     5     6   ar
    23     6     7   ar
    24     7     8   ar
    25     8     9   ar
    26     9    10   ar
    27    10    11    1
    28    11    12    1
    29    12    13   ar
    30    13    14   ar
    31    14    15   ar
    32    15    19    1
    33    19    20    1
    34    19    21    1
    35    19    22    1
    36    15    16   ar
    37    16    17   ar
    38    17    18    1
    39    26    29    1
    40    29    24    1
    41    41    36   ar
    42    10     5   ar
    43    17    12   ar
    44     1     4    1
