@<TRIPOS>MOLECULE
*****
 32 37 0 0 0
SMALL
GASTEIGER

@<TRIPOS>ATOM
      1 N          63.5506   91.2227   11.3844 N.pl3   1  UNL1       -0.3046
      2 C          62.8693   90.9604   10.0740 C.3     1  UNL1        0.1081
      3 C          61.7439   89.9715    9.9986 C.3     1  UNL1        0.0938
      4 N          61.2999   89.2451   11.2336 N.3     1  UNL1       -0.2695
      5 C          61.9812   89.5075   12.5439 C.3     1  UNL1        0.0938
      6 C          63.1065   90.4963   12.6193 C.3     1  UNL1        0.1081
      7 C          68.2599   92.3164   16.2707 C.3     1  UNL1        0.0521
      8 C          67.3639   92.2902   15.0680 C.ar    1  UNL1        0.0593
      9 C          66.2386   91.3013   14.9926 C.ar    1  UNL1        0.0148
     10 C          65.3426   91.2752   13.7898 C.ar    1  UNL1        0.0039
     11 C          65.5720   92.2377   12.6626 C.ar    1  UNL1        0.0310
     12 C          64.6760   92.2116   11.4598 C.ar    1  UNL1        0.0493
     13 C          64.9054   93.1742   10.3325 C.ar    1  UNL1        0.0146
     14 C          66.0309   94.1630   10.4080 C.ar    1  UNL1        0.0028
     15 C          66.9269   94.1892   11.6107 C.ar    1  UNL1        0.0192
     16 C          66.6974   93.2266   12.7380 C.ar    1  UNL1        0.0821
     17 N          67.5933   93.2528   13.9407 N.ar    1  UNL1       -0.2496
     18 C          60.1744   88.2562   11.1582 C.3     1  UNL1        0.0770
     19 C          59.9127   87.5138    9.8814 C.3     1  UNL1        0.0468
     20 C          60.9092   86.5117    9.3787 C.ar    1  UNL1        0.0146
     21 C          61.0889   86.3077    7.9036 C.ar    1  UNL1       -0.0011
     22 C          62.0855   85.3057    7.4009 C.ar    1  UNL1        0.0014
     23 C          62.9023   84.5075    8.3734 C.ar    1  UNL1        0.0206
     24 C          62.7226   84.7115    9.8486 C.ar    1  UNL1        0.0989
     25 C          61.7261   85.7135   10.3513 C.ar    1  UNL1        0.1511
     26 O          61.5464   85.9175   11.8263 O.3     1  UNL1       -0.4678
     27 C          62.3632   85.1194   12.7989 C.3     1  UNL1        0.2509
     28 C          63.3598   84.1173   12.2962 C.ar    1  UNL1        0.1057
     29 C          64.3000   83.1918   13.0101 C.ar    1  UNL1        0.1174
     30 N          65.0607   82.4159   11.9760 N.ar    1  UNL1       -0.2223
     31 C          64.5907   82.8618   10.6232 C.ar    1  UNL1        0.1827
     32 N          63.5395   83.9133   10.8210 N.ar    1  UNL1       -0.2852
@<TRIPOS>BOND
     1     7     8    1
     2     8     9   ar
     3     9    10   ar
     4    10    11   ar
     5    11    12   ar
     6    12     1    1
     7     1     2    1
     8     2     3    1
     9     3     4    1
    10     4    18    1
    11    18    19    1
    12    19    20    1
    13    20    21   ar
    14    21    22   ar
    15    22    23   ar
    16    23    24   ar
    17    24    25   ar
    18    25    26    1
    19    26    27    1
    20    27    28    1
    21    28    29   ar
    22    29    30   ar
    23    30    31   ar
    24    31    32   ar
    25     4     5    1
    26     5     6    1
    27    12    13   ar
    28    13    14   ar
    29    14    15   ar
    30    15    16   ar
    31    16    17   ar
    32    17     8   ar
    33    16    11   ar
    34     6     1    1
    35    25    20   ar
    36    32    28   ar
    37    32    24    1
@<TRIPOS>MOLECULE
*****
 32 37 0 0 0
SMALL
GASTEIGER

@<TRIPOS>ATOM
      1 N          63.1583   90.6282   11.7875 N.pl3   1  UNL1       -0.3046
      2 C          61.9626   90.0562   12.4896 C.3     1  UNL1        0.1081
      3 C          60.8531   89.4333   11.6950 C.3     1  UNL1        0.0938
      4 N          60.9396   89.3826   10.1984 N.3     1  UNL1       -0.2695
      5 C          62.1353   89.9546    9.4963 C.3     1  UNL1        0.0938
      6 C          63.2447   90.5775   10.2909 C.3     1  UNL1        0.1081
      7 C          67.2663   95.9545   10.3715 C.3     1  UNL1        0.0521
      8 C          66.5167   94.7787   10.9242 C.ar    1  UNL1        0.0593
      9 C          65.4073   94.1558   10.1296 C.ar    1  UNL1        0.0148
     10 C          64.6576   92.9799   10.6823 C.ar    1  UNL1        0.0039
     11 C          65.0173   92.4270   12.0294 C.ar    1  UNL1        0.0310
     12 C          64.2677   91.2511   12.5821 C.ar    1  UNL1        0.0493
     13 C          64.6274   90.6981   13.9292 C.ar    1  UNL1        0.0146
     14 C          65.7368   91.3211   14.7237 C.ar    1  UNL1        0.0028
     15 C          66.4865   92.4969   14.1711 C.ar    1  UNL1        0.0192
     16 C          66.1267   93.0499   12.8239 C.ar    1  UNL1        0.0821
     17 N          66.8764   94.2257   12.2713 N.ar    1  UNL1       -0.2496
     18 C          59.8302   88.7597    9.4038 C.3     1  UNL1        0.0770
     19 C          59.6011   87.2787    9.4687 C.3     1  UNL1        0.0468
     20 C          60.6849   86.3328    9.0437 C.ar    1  UNL1        0.0146
     21 C          60.9103   86.0563    7.5868 C.ar    1  UNL1       -0.0011
     22 C          61.9941   85.1104    7.1618 C.ar    1  UNL1        0.0014
     23 C          62.8526   84.4411    8.1938 C.ar    1  UNL1        0.0206
     24 C          62.6273   84.7177    9.6507 C.ar    1  UNL1        0.0989
     25 C          61.5434   85.6635   10.0757 C.ar    1  UNL1        0.1511
     26 O          61.3181   85.9401   11.5326 O.3     1  UNL1       -0.4678
     27 C          62.1766   85.2708   12.5647 C.3     1  UNL1        0.2509
     28 C          63.2604   84.3249   12.1397 C.ar    1  UNL1        0.1057
     29 C          64.2573   83.5235   12.9233 C.ar    1  UNL1        0.1174
     30 N          65.0988   82.7516   11.9505 N.ar    1  UNL1       -0.2223
     31 C          64.6219   83.0760   10.5658 C.ar    1  UNL1        0.1827
     32 N          63.4858   84.0484   10.6827 N.ar    1  UNL1       -0.2852
@<TRIPOS>BOND
     1     7     8    1
     2     8     9   ar
     3     9    10   ar
     4    10    11   ar
     5    11    12   ar
     6    12     1    1
     7     1     2    1
     8     2     3    1
     9     3     4    1
    10     4    18    1
    11    18    19    1
    12    19    20    1
    13    20    21   ar
    14    21    22   ar
    15    22    23   ar
    16    23    24   ar
    17    24    25   ar
    18    25    26    1
    19    26    27    1
    20    27    28    1
    21    28    29   ar
    22    29    30   ar
    23    30    31   ar
    24    31    32   ar
    25     4     5    1
    26     5     6    1
    27    12    13   ar
    28    13    14   ar
    29    14    15   ar
    30    15    16   ar
    31    16    17   ar
    32    17     8   ar
    33    16    11   ar
    34     6     1    1
    35    25    20   ar
    36    32    28   ar
    37    32    24    1
@<TRIPOS>MOLECULE
*****
 32 37 0 0 0
SMALL
GASTEIGER

@<TRIPOS>ATOM
      1 N          63.5544   88.9964   12.7907 N.pl3   1  UNL1       -0.3046
      2 C          64.2543   88.8541   14.1098 C.3     1  UNL1        0.1081
      3 C          64.8741   90.0538   14.7631 C.3     1  UNL1        0.0938
      4 N          64.7939   91.3956   14.0973 N.3     1  UNL1       -0.2695
      5 C          64.0939   91.5377   12.7784 C.3     1  UNL1        0.0938
      6 C          63.4742   90.3382   12.1250 C.3     1  UNL1        0.1081
      7 C          59.2570   88.4993    7.4489 C.3     1  UNL1        0.0521
      8 C          60.1764   88.3237    8.6210 C.ar    1  UNL1        0.0593
      9 C          60.7961   89.5233    9.2743 C.ar    1  UNL1        0.0148
     10 C          61.7156   89.3476   10.4465 C.ar    1  UNL1        0.0039
     11 C          62.0152   87.9725   10.9652 C.ar    1  UNL1        0.0310
     12 C          62.9346   87.7968   12.1374 C.ar    1  UNL1        0.0493
     13 C          63.2343   86.4216   12.6561 C.ar    1  UNL1        0.0146
     14 C          62.6144   85.2220   12.0027 C.ar    1  UNL1        0.0028
     15 C          61.6950   85.3976   10.8305 C.ar    1  UNL1        0.0192
     16 C          61.3954   86.7729   10.3118 C.ar    1  UNL1        0.0821
     17 N          60.4760   86.9485    9.1397 N.ar    1  UNL1       -0.2496
     18 C          65.4136   92.5952   14.7507 C.3     1  UNL1        0.0770
     19 C          66.7451   93.1013   14.2804 C.3     1  UNL1        0.0468
     20 C          67.1514   92.9237   12.8475 C.ar    1  UNL1        0.0146
     21 C          67.9411   91.7168   12.4359 C.ar    1  UNL1       -0.0011
     22 C          68.3474   91.5392   11.0030 C.ar    1  UNL1        0.0014
     23 C          67.9639   92.5685    9.9816 C.ar    1  UNL1        0.0206
     24 C          67.1741   93.7755   10.3931 C.ar    1  UNL1        0.0989
     25 C          66.7678   93.9531   11.8261 C.ar    1  UNL1        0.1511
     26 O          65.9780   95.1600   12.2376 O.3     1  UNL1       -0.4678
     27 C          65.5944   96.1895   11.2162 C.3     1  UNL1        0.2509
     28 C          66.0007   96.0119    9.7833 C.ar    1  UNL1        0.1057
     29 C          65.7691   96.8526    8.5628 C.ar    1  UNL1        0.1174
     30 N          66.4158   96.1652    7.3969 N.ar    1  UNL1       -0.2223
     31 C          67.0471   94.8996    7.8969 C.ar    1  UNL1        0.1827
     32 N          66.7905   94.8049    9.3717 N.ar    1  UNL1       -0.2852
@<TRIPOS>BOND
     1     7     8    1
     2     8     9   ar
     3     9    10   ar
     4    10    11   ar
     5    11    12   ar
     6    12     1    1
     7     1     2    1
     8     2     3    1
     9     3     4    1
    10     4    18    1
    11    18    19    1
    12    19    20    1
    13    20    21   ar
    14    21    22   ar
    15    22    23   ar
    16    23    24   ar
    17    24    25   ar
    18    25    26    1
    19    26    27    1
    20    27    28    1
    21    28    29   ar
    22    29    30   ar
    23    30    31   ar
    24    31    32   ar
    25     4     5    1
    26     5     6    1
    27    12    13   ar
    28    13    14   ar
    29    14    15   ar
    30    15    16   ar
    31    16    17   ar
    32    17     8   ar
    33    16    11   ar
    34     6     1    1
    35    25    20   ar
    36    32    28   ar
    37    32    24    1
@<TRIPOS>MOLECULE
*****
 32 37 0 0 0
SMALL
GASTEIGER

@<TRIPOS>ATOM
      1 N          63.4120   89.1969   12.4310 N.pl3   1  UNL1       -0.3046
      2 C          63.4259   90.6180   11.9511 C.3     1  UNL1        0.1081
      3 C          64.0762   91.6840   12.7823 C.3     1  UNL1        0.0938
      4 N          64.7125   91.3287   14.0934 N.3     1  UNL1       -0.2695
      5 C          64.6986   89.9077   14.5732 C.3     1  UNL1        0.0938
      6 C          64.0483   88.8418   13.7420 C.3     1  UNL1        0.1081
      7 C          63.1083   82.3832   13.2861 C.3     1  UNL1        0.0521
      8 C          63.0217   83.8202   12.8645 C.ar    1  UNL1        0.0593
      9 C          63.6719   84.8861   13.6957 C.ar    1  UNL1        0.0148
     10 C          63.5852   86.3231   13.2741 C.ar    1  UNL1        0.0039
     11 C          62.8484   86.6940   12.0214 C.ar    1  UNL1        0.0310
     12 C          62.7617   88.1310   11.5998 C.ar    1  UNL1        0.0493
     13 C          62.0248   88.5020   10.3470 C.ar    1  UNL1        0.0146
     14 C          61.3746   87.4359    9.5159 C.ar    1  UNL1        0.0028
     15 C          61.4612   85.9990    9.9374 C.ar    1  UNL1        0.0192
     16 C          62.1981   85.6281   11.1902 C.ar    1  UNL1        0.0821
     17 N          62.2848   84.1911   11.6118 N.ar    1  UNL1       -0.2496
     18 C          65.3628   92.3947   14.9247 C.3     1  UNL1        0.0770
     19 C          66.5994   93.0832   14.4278 C.3     1  UNL1        0.0468
     20 C          67.0421   92.8966   13.0069 C.ar    1  UNL1        0.0146
     21 C          67.8164   91.6725   12.6172 C.ar    1  UNL1       -0.0011
     22 C          68.2591   91.4859   11.1962 C.ar    1  UNL1        0.0014
     23 C          67.9275   92.5234   10.1649 C.ar    1  UNL1        0.0206
     24 C          67.1532   93.7476   10.5546 C.ar    1  UNL1        0.0989
     25 C          66.7105   93.9342   11.9756 C.ar    1  UNL1        0.1511
     26 O          65.9362   95.1583   12.3653 O.3     1  UNL1       -0.4678
     27 C          65.6046   96.1959   11.3340 C.3     1  UNL1        0.2509
     28 C          66.0473   96.0093    9.9131 C.ar    1  UNL1        0.1057
     29 C          65.8690   96.8549    8.6870 C.ar    1  UNL1        0.1174
     30 N          66.5331   96.1533    7.5396 N.ar    1  UNL1       -0.2223
     31 C          67.1219   94.8741    8.0564 C.ar    1  UNL1        0.1827
     32 N          66.8216   94.7851    9.5234 N.ar    1  UNL1       -0.2852
@<TRIPOS>BOND
     1     7     8    1
     2     8     9   ar
     3     9    10   ar
     4    10    11   ar
     5    11    12   ar
     6    12     1    1
     7     1     2    1
     8     2     3    1
     9     3     4    1
    10     4    18    1
    11    18    19    1
    12    19    20    1
    13    20    21   ar
    14    21    22   ar
    15    22    23   ar
    16    23    24   ar
    17    24    25   ar
    18    25    26    1
    19    26    27    1
    20    27    28    1
    21    28    29   ar
    22    29    30   ar
    23    30    31   ar
    24    31    32   ar
    25     4     5    1
    26     5     6    1
    27    12    13   ar
    28    13    14   ar
    29    14    15   ar
    30    15    16   ar
    31    16    17   ar
    32    17     8   ar
    33    16    11   ar
    34     6     1    1
    35    25    20   ar
    36    32    28   ar
    37    32    24    1
@<TRIPOS>MOLECULE
*****
 32 37 0 0 0
SMALL
GASTEIGER

@<TRIPOS>ATOM
      1 N          62.7194   86.0336   12.5579 N.pl3   1  UNL1       -0.3046
      2 C          63.4530   87.1862   13.1770 C.3     1  UNL1        0.1081
      3 C          63.4341   88.5312   12.5128 C.3     1  UNL1        0.0938
      4 N          62.6815   88.7233   11.2296 N.3     1  UNL1       -0.2695
      5 C          61.9479   87.5707   10.6105 C.3     1  UNL1        0.0938
      6 C          61.9668   86.2259   11.2746 C.3     1  UNL1        0.1081
      7 C          63.1816   79.7101    9.9029 C.3     1  UNL1        0.0521
      8 C          63.0708   80.9548   10.7327 C.ar    1  UNL1        0.0593
      9 C          63.0519   82.2996   10.0686 C.ar    1  UNL1        0.0148
     10 C          62.9410   83.5443   10.8984 C.ar    1  UNL1        0.0039
     11 C          62.8491   83.4441   12.3921 C.ar    1  UNL1        0.0310
     12 C          62.7383   84.6888   13.2220 C.ar    1  UNL1        0.0493
     13 C          62.6464   84.5887   14.7158 C.ar    1  UNL1        0.0146
     14 C          62.6653   83.2437   15.3798 C.ar    1  UNL1        0.0028
     15 C          62.7762   81.9990   14.5501 C.ar    1  UNL1        0.0192
     16 C          62.8681   82.0993   13.0562 C.ar    1  UNL1        0.0821
     17 N          62.9789   80.8546   12.2265 N.ar    1  UNL1       -0.2496
     18 C          62.6625   90.0682   10.5654 C.3     1  UNL1        0.0770
     19 C          62.9752   91.3014   11.3599 C.3     1  UNL1        0.0468
     20 C          64.3863   91.8039   11.4405 C.ar    1  UNL1        0.0146
     21 C          65.1132   92.2019   10.1903 C.ar    1  UNL1       -0.0011
     22 C          66.5242   92.7043   10.2709 C.ar    1  UNL1        0.0014
     23 C          67.2083   92.8088   11.6018 C.ar    1  UNL1        0.0206
     24 C          66.4813   92.4108   12.8520 C.ar    1  UNL1        0.0989
     25 C          65.0703   91.9083   12.7714 C.ar    1  UNL1        0.1511
     26 O          64.3434   91.5103   14.0216 O.3     1  UNL1       -0.4678
     27 C          65.0274   91.6148   15.3525 C.3     1  UNL1        0.2509
     28 C          66.4384   92.1172   15.4331 C.ar    1  UNL1        0.1057
     29 C          67.3641   92.3275   16.5945 C.ar    1  UNL1        0.1174
     30 N          68.6633   92.8554   16.0620 N.ar    1  UNL1       -0.2223
     31 C          68.5404   92.9715   14.5715 C.ar    1  UNL1        0.1827
     32 N          67.1654   92.5152   14.1829 N.ar    1  UNL1       -0.2852
@<TRIPOS>BOND
     1     7     8    1
     2     8     9   ar
     3     9    10   ar
     4    10    11   ar
     5    11    12   ar
     6    12     1    1
     7     1     2    1
     8     2     3    1
     9     3     4    1
    10     4    18    1
    11    18    19    1
    12    19    20    1
    13    20    21   ar
    14    21    22   ar
    15    22    23   ar
    16    23    24   ar
    17    24    25   ar
    18    25    26    1
    19    26    27    1
    20    27    28    1
    21    28    29   ar
    22    29    30   ar
    23    30    31   ar
    24    31    32   ar
    25     4     5    1
    26     5     6    1
    27    12    13   ar
    28    13    14   ar
    29    14    15   ar
    30    15    16   ar
    31    16    17   ar
    32    17     8   ar
    33    16    11   ar
    34     6     1    1
    35    25    20   ar
    36    32    28   ar
    37    32    24    1
@<TRIPOS>MOLECULE
*****
 32 37 0 0 0
SMALL
GASTEIGER

@<TRIPOS>ATOM
      1 N          62.1172   87.5787   11.2977 N.pl3   1  UNL1       -0.3046
      2 C          62.3261   88.9474   10.7205 C.3     1  UNL1        0.1081
      3 C          61.4823   89.4134    9.5711 C.3     1  UNL1        0.0938
      4 N          60.4297   88.5106    8.9991 N.3     1  UNL1       -0.2695
      5 C          60.2209   87.1421    9.5763 C.3     1  UNL1        0.0938
      6 C          61.0646   86.6761   10.7257 C.3     1  UNL1        0.1081
      7 C          63.7400   81.2419   13.4100 C.3     1  UNL1        0.0521
      8 C          63.5452   82.7096   13.1692 C.ar    1  UNL1        0.0593
      9 C          62.7015   83.1756   12.0199 C.ar    1  UNL1        0.0148
     10 C          62.5068   84.6434   11.7792 C.ar    1  UNL1        0.0039
     11 C          63.1557   85.6450   12.6878 C.ar    1  UNL1        0.0310
     12 C          62.9609   87.1127   12.4471 C.ar    1  UNL1        0.0493
     13 C          63.6098   88.1144   13.3557 C.ar    1  UNL1        0.0146
     14 C          64.4536   87.6483   14.5050 C.ar    1  UNL1        0.0028
     15 C          64.6483   86.1806   14.7458 C.ar    1  UNL1        0.0192
     16 C          63.9994   85.1790   13.8371 C.ar    1  UNL1        0.0821
     17 N          64.1942   83.7113   14.0778 N.ar    1  UNL1       -0.2496
     18 C          59.5860   88.9766    7.8497 C.3     1  UNL1        0.0770
     19 C          60.2351   89.3926    6.5630 C.3     1  UNL1        0.0468
     20 C          59.5551   90.3843    5.6663 C.ar    1  UNL1        0.0146
     21 C          58.0797   90.6221    5.7936 C.ar    1  UNL1       -0.0011
     22 C          57.3997   91.6138    4.8969 C.ar    1  UNL1        0.0014
     23 C          58.1952   92.3676    3.8727 C.ar    1  UNL1        0.0206
     24 C          59.6708   92.1298    3.7454 C.ar    1  UNL1        0.0989
     25 C          60.3508   91.1381    4.6421 C.ar    1  UNL1        0.1511
     26 O          61.8262   90.9003    4.5148 O.3     1  UNL1       -0.4678
     27 C          62.6219   91.6541    3.4906 C.3     1  UNL1        0.2509
     28 C          61.9419   92.6458    2.5939 C.ar    1  UNL1        0.1057
     29 C          62.4613   93.5307    1.4998 C.ar    1  UNL1        0.1174
     30 N          61.3068   94.3155    0.9510 N.ar    1  UNL1       -0.2223
     31 C          60.0738   93.9156    1.7059 C.ar    1  UNL1        0.1827
     32 N          60.4663   92.8836    2.7212 N.ar    1  UNL1       -0.2852
@<TRIPOS>BOND
     1     7     8    1
     2     8     9   ar
     3     9    10   ar
     4    10    11   ar
     5    11    12   ar
     6    12     1    1
     7     1     2    1
     8     2     3    1
     9     3     4    1
    10     4    18    1
    11    18    19    1
    12    19    20    1
    13    20    21   ar
    14    21    22   ar
    15    22    23   ar
    16    23    24   ar
    17    24    25   ar
    18    25    26    1
    19    26    27    1
    20    27    28    1
    21    28    29   ar
    22    29    30   ar
    23    30    31   ar
    24    31    32   ar
    25     4     5    1
    26     5     6    1
    27    12    13   ar
    28    13    14   ar
    29    14    15   ar
    30    15    16   ar
    31    16    17   ar
    32    17     8   ar
    33    16    11   ar
    34     6     1    1
    35    25    20   ar
    36    32    28   ar
    37    32    24    1
@<TRIPOS>MOLECULE
*****
 32 37 0 0 0
SMALL
GASTEIGER

@<TRIPOS>ATOM
      1 N          63.3474   84.9063   14.4772 N.pl3   1  UNL1       -0.3046
      2 C          64.2665   86.0781   14.2983 C.3     1  UNL1        0.1081
      3 C          64.2182   87.2237   15.2654 C.3     1  UNL1        0.0938
      4 N          63.2508   87.1973   16.4114 N.3     1  UNL1       -0.2695
      5 C          62.3317   86.0256   16.5903 C.3     1  UNL1        0.0938
      6 C          62.3800   84.8800   15.6232 C.3     1  UNL1        0.1081
      7 C          62.7955   84.7742    7.6268 C.3     1  UNL1        0.0521
      8 C          62.9455   84.5208    9.0976 C.ar    1  UNL1        0.0593
      9 C          62.8972   85.6664   10.0647 C.ar    1  UNL1        0.0148
     10 C          63.0473   85.4130   11.5356 C.ar    1  UNL1        0.0039
     11 C          63.2456   84.0141   12.0392 C.ar    1  UNL1        0.0310
     12 C          63.3957   83.7607   13.5101 C.ar    1  UNL1        0.0493
     13 C          63.5941   82.3618   14.0138 C.ar    1  UNL1        0.0146
     14 C          63.6423   81.2162   13.0465 C.ar    1  UNL1        0.0028
     15 C          63.4923   81.4696   11.5757 C.ar    1  UNL1        0.0192
     16 C          63.2939   82.8686   11.0721 C.ar    1  UNL1        0.0821
     17 N          63.1439   83.1219    9.6013 N.ar    1  UNL1       -0.2496
     18 C          63.2024   88.3430   17.3786 C.3     1  UNL1        0.0770
     19 C          62.7435   89.6947   16.9178 C.3     1  UNL1        0.0468
     20 C          63.6303   90.5295   16.0422 C.ar    1  UNL1        0.0146
     21 C          64.7414   91.3336   16.6494 C.ar    1  UNL1       -0.0011
     22 C          65.6281   92.1684   15.7738 C.ar    1  UNL1        0.0014
     23 C          65.4037   92.1992   14.2910 C.ar    1  UNL1        0.0206
     24 C          64.2925   91.3950   13.6838 C.ar    1  UNL1        0.0989
     25 C          63.4057   90.5602   14.5594 C.ar    1  UNL1        0.1511
     26 O          62.2946   89.7561   13.9523 O.3     1  UNL1       -0.4678
     27 C          62.0701   89.7868   12.4694 C.3     1  UNL1        0.2509
     28 C          62.9568   90.6217   11.5938 C.ar    1  UNL1        0.1057
     29 C          62.9771   90.8484   10.1112 C.ar    1  UNL1        0.1174
     30 N          64.1008   91.7927    9.8021 N.ar    1  UNL1       -0.2223
     31 C          64.7750   92.1495   11.0936 C.ar    1  UNL1        0.1827
     32 N          64.0680   91.4258   12.2010 N.ar    1  UNL1       -0.2852
@<TRIPOS>BOND
     1     7     8    1
     2     8     9   ar
     3     9    10   ar
     4    10    11   ar
     5    11    12   ar
     6    12     1    1
     7     1     2    1
     8     2     3    1
     9     3     4    1
    10     4    18    1
    11    18    19    1
    12    19    20    1
    13    20    21   ar
    14    21    22   ar
    15    22    23   ar
    16    23    24   ar
    17    24    25   ar
    18    25    26    1
    19    26    27    1
    20    27    28    1
    21    28    29   ar
    22    29    30   ar
    23    30    31   ar
    24    31    32   ar
    25     4     5    1
    26     5     6    1
    27    12    13   ar
    28    13    14   ar
    29    14    15   ar
    30    15    16   ar
    31    16    17   ar
    32    17     8   ar
    33    16    11   ar
    34     6     1    1
    35    25    20   ar
    36    32    28   ar
    37    32    24    1
@<TRIPOS>MOLECULE
*****
 32 37 0 0 0
SMALL
GASTEIGER

@<TRIPOS>ATOM
      1 N          63.8358   85.0462   12.8700 N.pl3   1  UNL1       -0.3046
      2 C          64.5456   85.0870   14.1908 C.3     1  UNL1        0.1081
      3 C          64.6498   86.3785   14.9467 C.3     1  UNL1        0.0938
      4 N          64.0442   87.6290   14.3817 N.3     1  UNL1       -0.2695
      5 C          63.3344   87.5882   13.0610 C.3     1  UNL1        0.0938
      6 C          63.2302   86.2968   12.3051 C.3     1  UNL1        0.1081
      7 C          60.3696   79.2783   14.2726 C.3     1  UNL1        0.0521
      8 C          61.2101   80.3974   13.7330 C.ar    1  UNL1        0.0593
      9 C          61.3143   81.6888   14.4889 C.ar    1  UNL1        0.0148
     10 C          62.1548   82.8080   13.9492 C.ar    1  UNL1        0.0039
     11 C          62.8910   82.6356   12.6538 C.ar    1  UNL1        0.0310
     12 C          63.7316   83.7547   12.1142 C.ar    1  UNL1        0.0493
     13 C          64.4679   83.5824   10.8187 C.ar    1  UNL1        0.0146
     14 C          64.3636   82.2909   10.0629 C.ar    1  UNL1        0.0028
     15 C          63.5231   81.1718   10.6025 C.ar    1  UNL1        0.0192
     16 C          62.7868   81.3442   11.8980 C.ar    1  UNL1        0.0821
     17 N          61.9464   80.2251   12.4376 N.ar    1  UNL1       -0.2496
     18 C          64.1484   88.9205   15.1376 C.3     1  UNL1        0.0770
     19 C          63.7424   90.2076   14.4828 C.3     1  UNL1        0.0468
     20 C          64.7132   91.3485   14.4056 C.ar    1  UNL1        0.0146
     21 C          65.4197   91.8171   15.6429 C.ar    1  UNL1       -0.0011
     22 C          66.3904   92.9581   15.5657 C.ar    1  UNL1        0.0014
     23 C          66.6546   93.6303   14.2510 C.ar    1  UNL1        0.0206
     24 C          65.9480   93.1617   13.0137 C.ar    1  UNL1        0.0989
     25 C          64.9773   92.0208   13.0909 C.ar    1  UNL1        0.1511
     26 O          64.2707   91.5522   11.8536 O.3     1  UNL1       -0.4678
     27 C          64.5348   92.2245   10.5389 C.3     1  UNL1        0.2509
     28 C          65.5055   93.3654   10.4616 C.ar    1  UNL1        0.1057
     29 C          65.9652   94.2162    9.3150 C.ar    1  UNL1        0.1174
     30 N          66.9559   95.2106    9.8437 N.ar    1  UNL1       -0.2223
     31 C          67.1085   94.9744   11.3171 C.ar    1  UNL1        0.1827
     32 N          66.2121   93.8340   11.6990 N.ar    1  UNL1       -0.2852
@<TRIPOS>BOND
     1     7     8    1
     2     8     9   ar
     3     9    10   ar
     4    10    11   ar
     5    11    12   ar
     6    12     1    1
     7     1     2    1
     8     2     3    1
     9     3     4    1
    10     4    18    1
    11    18    19    1
    12    19    20    1
    13    20    21   ar
    14    21    22   ar
    15    22    23   ar
    16    23    24   ar
    17    24    25   ar
    18    25    26    1
    19    26    27    1
    20    27    28    1
    21    28    29   ar
    22    29    30   ar
    23    30    31   ar
    24    31    32   ar
    25     4     5    1
    26     5     6    1
    27    12    13   ar
    28    13    14   ar
    29    14    15   ar
    30    15    16   ar
    31    16    17   ar
    32    17     8   ar
    33    16    11   ar
    34     6     1    1
    35    25    20   ar
    36    32    28   ar
    37    32    24    1
@<TRIPOS>MOLECULE
*****
 32 37 0 0 0
SMALL
GASTEIGER

@<TRIPOS>ATOM
      1 N          63.7541   87.0913   14.7750 N.pl3   1  UNL1       -0.3046
      2 C          64.2766   88.3163   14.0848 C.3     1  UNL1        0.1081
      3 C          64.2714   89.6374   14.7955 C.3     1  UNL1        0.0938
      4 N          63.7435   89.7333   16.1962 N.3     1  UNL1       -0.2695
      5 C          63.2210   88.5083   16.8864 C.3     1  UNL1        0.0938
      6 C          63.2262   87.1873   16.1758 C.3     1  UNL1        0.1081
      7 C          61.8361   85.4073    8.3926 C.3     1  UNL1        0.0521
      8 C          62.3169   85.4981    9.8105 C.ar    1  UNL1        0.0593
      9 C          62.3116   86.8191   10.5211 C.ar    1  UNL1        0.0148
     10 C          62.7925   86.9098   11.9391 C.ar    1  UNL1        0.0039
     11 C          63.2785   85.6796   12.6464 C.ar    1  UNL1        0.0310
     12 C          63.7593   85.7704   14.0644 C.ar    1  UNL1        0.0493
     13 C          64.2454   84.5402   14.7718 C.ar    1  UNL1        0.0146
     14 C          64.2506   83.2192   14.0611 C.ar    1  UNL1        0.0028
     15 C          63.7698   83.1284   12.6431 C.ar    1  UNL1        0.0192
     16 C          63.2838   84.3586   11.9358 C.ar    1  UNL1        0.0821
     17 N          62.8030   84.2679   10.5179 N.ar    1  UNL1       -0.2496
     18 C          63.7382   91.0543   16.9069 C.3     1  UNL1        0.0770
     19 C          64.2574   92.2800   16.2154 C.3     1  UNL1        0.0468
     20 C          65.6526   92.2962   15.6649 C.ar    1  UNL1        0.0146
     21 C          66.8271   92.2960   16.5978 C.ar    1  UNL1       -0.0011
     22 C          68.2223   92.3122   16.0472 C.ar    1  UNL1        0.0014
     23 C          68.4429   92.3286   14.5636 C.ar    1  UNL1        0.0206
     24 C          67.2684   92.3288   13.6306 C.ar    1  UNL1        0.0989
     25 C          65.8732   92.3126   14.1812 C.ar    1  UNL1        0.1511
     26 O          64.6988   92.3129   13.2483 O.3     1  UNL1       -0.4678
     27 C          64.9194   92.3293   11.7646 C.3     1  UNL1        0.2509
     28 C          66.3146   92.3455   11.2140 C.ar    1  UNL1        0.1057
     29 C          66.8388   92.3635    9.8088 C.ar    1  UNL1        0.1174
     30 N          68.3374   92.3744    9.8733 N.ar    1  UNL1       -0.2223
     31 C          68.7393   92.3631   11.3184 C.ar    1  UNL1        0.1827
     32 N          67.4891   92.3453   12.1471 N.ar    1  UNL1       -0.2852
@<TRIPOS>BOND
     1     7     8    1
     2     8     9   ar
     3     9    10   ar
     4    10    11   ar
     5    11    12   ar
     6    12     1    1
     7     1     2    1
     8     2     3    1
     9     3     4    1
    10     4    18    1
    11    18    19    1
    12    19    20    1
    13    20    21   ar
    14    21    22   ar
    15    22    23   ar
    16    23    24   ar
    17    24    25   ar
    18    25    26    1
    19    26    27    1
    20    27    28    1
    21    28    29   ar
    22    29    30   ar
    23    30    31   ar
    24    31    32   ar
    25     4     5    1
    26     5     6    1
    27    12    13   ar
    28    13    14   ar
    29    14    15   ar
    30    15    16   ar
    31    16    17   ar
    32    17     8   ar
    33    16    11   ar
    34     6     1    1
    35    25    20   ar
    36    32    28   ar
    37    32    24    1
