@<TRIPOS>MOLECULE
*****
 28 30 0 0 0
SMALL
GASTEIGER

@<TRIPOS>ATOM
      1 C          63.2178   84.2233   13.7861 C.ar    1  UNL1        0.0070
      2 C          62.6085   84.9522   12.6253 C.ar    1  UNL1       -0.0017
      3 C          62.8222   86.4288   12.4712 C.ar    1  UNL1       -0.0002
      4 C          63.6453   87.1766   13.4779 C.ar    1  UNL1        0.0000
      5 C          64.2547   86.4477   14.6387 C.ar    1  UNL1       -0.0002
      6 C          64.0409   84.9711   14.7928 C.ar    1  UNL1       -0.0017
      7 C          63.8590   88.6533   13.3237 C.ar    1  UNL1        0.0012
      8 C          63.3086   89.3698   12.1264 C.ar    1  UNL1        0.0001
      9 C          63.5224   90.8465   11.9723 C.ar    1  UNL1        0.0013
     10 C          64.2865   91.6067   13.0155 C.ar    1  UNL1        0.0147
     11 C          64.8369   90.8901   14.2129 C.ar    1  UNL1        0.0503
     12 C          64.6231   89.4134   14.3670 C.ar    1  UNL1        0.0147
     13 N          65.6010   91.6502   15.2561 N.am    1  UNL1       -0.2839
     14 C          67.0287   92.0370   15.0069 C.2     1  UNL1        0.2266
     15 C          67.7928   92.7971   16.0502 C.3     1  UNL1        0.0949
     16 O          67.6923   91.6636   13.7146 O.2     1  UNL1       -0.2748
     17 H          65.1654   91.8953   16.1043 H       1  UNL1        0.1549
     18 C          63.0041   82.7466   13.9403 C.3     1  UNL1        0.1411
     19 O          62.5234   82.9627   15.3446 O.3     1  UNL1       -0.3771
     20 H          61.6476   83.3792   15.3260 H       1  UNL1        0.2112
     21 C          63.4848   82.5305   12.5359 C.ar    1  UNL1        0.0825
     22 C          64.7602   83.0591   11.9494 C.ar    1  UNL1        0.1157
     23 N          64.8382   82.6031   10.5224 N.ar    1  UNL1       -0.2228
     24 C          63.6109   81.7926   10.2271 C.ar    1  UNL1        0.1749
     25 N          62.7745   81.7478   11.4715 N.ar    1  UNL1       -0.3361
     26 H          61.9110   81.2857   11.5719 H       1  UNL1        0.1673
     27 C          61.3986   80.7202   14.1974 C.3     1  UNL1        0.0033
     28 C          62.7904   81.2699   14.0943 C.3     1  UNL1        0.0369
@<TRIPOS>BOND
     1    27    28    1
     2    28    18    1
     3    18    19    1
     4    18     1    1
     5     1     2   ar
     6     2     3   ar
     7     3     4   ar
     8     4     7    1
     9     7     8   ar
    10     8     9   ar
    11     9    10   ar
    12    10    11   ar
    13    11    13    1
    14    13    14   am
    15    14    15    1
    16    14    16    2
    17    11    12   ar
    18     4     5   ar
    19     5     6   ar
    20    18    21    1
    21    21    22   ar
    22    22    23   ar
    23    23    24   ar
    24    24    25   ar
    25     6     1   ar
    26    25    21   ar
    27    12     7   ar
    28    19    20    1
    29    13    17    1
    30    25    26    1
@<TRIPOS>MOLECULE
*****
 28 30 0 0 0
SMALL
GASTEIGER

@<TRIPOS>ATOM
      1 C          65.1028   91.7561   13.3249 C.ar    1  UNL1        0.0070
      2 C          64.4588   92.0264   11.9975 C.ar    1  UNL1       -0.0017
      3 C          63.5544   91.0013   11.3801 C.ar    1  UNL1       -0.0002
      4 C          63.2939   89.7060   12.0902 C.ar    1  UNL1        0.0000
      5 C          63.9379   89.4357   13.4177 C.ar    1  UNL1       -0.0002
      6 C          64.8423   90.4608   14.0350 C.ar    1  UNL1       -0.0017
      7 C          62.3895   88.6809   11.4727 C.ar    1  UNL1        0.0012
      8 C          61.0945   89.1040   10.8451 C.ar    1  UNL1        0.0001
      9 C          60.1900   88.0789   10.2277 C.ar    1  UNL1        0.0013
     10 C          60.5806   86.6307   10.2379 C.ar    1  UNL1        0.0147
     11 C          61.8757   86.2076   10.8655 C.ar    1  UNL1        0.0503
     12 C          62.7801   87.2327   11.4829 C.ar    1  UNL1        0.0147
     13 N          62.2663   84.7594   10.8757 N.am    1  UNL1       -0.2839
     14 C          62.5343   84.0640   12.1776 C.2     1  UNL1        0.2266
     15 C          62.9249   82.6158   12.1878 C.3     1  UNL1        0.0949
     16 O          62.4117   84.8168   13.4691 O.2     1  UNL1       -0.2748
     17 H          62.3467   84.2652   10.0280 H       1  UNL1        0.1549
     18 C          66.0072   92.7813   13.9424 C.3     1  UNL1        0.1411
     19 O          65.4544   92.4529   15.2975 O.3     1  UNL1       -0.3771
     20 H          65.7764   91.5811   15.5755 H       1  UNL1        0.2112
     21 C          66.5601   93.1096   12.5872 C.ar    1  UNL1        0.0825
     22 C          66.3158   94.3740   11.8180 C.ar    1  UNL1        0.1157
     23 N          67.0591   94.2771   10.5187 N.ar    1  UNL1       -0.2228
     24 C          67.7627   92.9528   10.4849 C.ar    1  UNL1        0.1749
     25 N          67.4543   92.2313   11.7632 N.ar    1  UNL1       -0.3361
     26 H          67.7814   91.3380   12.0170 H       1  UNL1        0.1673
     27 C          67.9390   93.3890   15.5699 C.3     1  UNL1        0.0033
     28 C          66.9117   93.8063   14.5598 C.3     1  UNL1        0.0369
@<TRIPOS>BOND
     1    27    28    1
     2    28    18    1
     3    18    19    1
     4    18     1    1
     5     1     2   ar
     6     2     3   ar
     7     3     4   ar
     8     4     7    1
     9     7     8   ar
    10     8     9   ar
    11     9    10   ar
    12    10    11   ar
    13    11    13    1
    14    13    14   am
    15    14    15    1
    16    14    16    2
    17    11    12   ar
    18     4     5   ar
    19     5     6   ar
    20    18    21    1
    21    21    22   ar
    22    22    23   ar
    23    23    24   ar
    24    24    25   ar
    25     6     1   ar
    26    25    21   ar
    27    12     7   ar
    28    19    20    1
    29    13    17    1
    30    25    26    1
@<TRIPOS>MOLECULE
*****
 28 30 0 0 0
SMALL
GASTEIGER

@<TRIPOS>ATOM
      1 C          61.6341   88.8557   10.3645 C.ar    1  UNL1        0.0070
      2 C          62.1472   88.5652   11.7437 C.ar    1  UNL1       -0.0017
      3 C          63.1498   89.4821   12.3795 C.ar    1  UNL1       -0.0002
      4 C          63.6392   90.6894   11.6360 C.ar    1  UNL1        0.0000
      5 C          63.1261   90.9799   10.2568 C.ar    1  UNL1       -0.0002
      6 C          62.1236   90.0631    9.6210 C.ar    1  UNL1       -0.0017
      7 C          64.6418   91.6063   12.2719 C.ar    1  UNL1        0.0012
      8 C          65.2007   91.2832   13.6258 C.ar    1  UNL1        0.0001
      9 C          66.2033   92.2001   14.2617 C.ar    1  UNL1        0.0013
     10 C          66.6470   93.4400   13.5435 C.ar    1  UNL1        0.0147
     11 C          66.0880   93.7631   12.1895 C.ar    1  UNL1        0.0503
     12 C          65.0855   92.8462   11.5537 C.ar    1  UNL1        0.0147
     13 N          66.5317   95.0030   11.4713 N.am    1  UNL1       -0.2839
     14 C          67.0853   94.9066   10.0805 C.2     1  UNL1        0.2266
     15 C          67.5289   96.1466    9.3623 C.3     1  UNL1        0.0949
     16 O          67.1952   93.5704    9.4079 O.2     1  UNL1       -0.2748
     17 H          66.4595   95.8800   11.9127 H       1  UNL1        0.1549
     18 C          60.6315   87.9389    9.7287 C.3     1  UNL1        0.1411
     19 O          59.8050   89.1233    9.3239 O.3     1  UNL1       -0.3771
     20 H          60.2526   89.6003    8.6076 H       1  UNL1        0.2112
     21 C          61.4580   86.7544   10.1335 C.ar    1  UNL1        0.0825
     22 C          62.4796   86.0598    9.2825 C.ar    1  UNL1        0.1157
     23 N          63.0610   84.9326   10.0835 N.ar    1  UNL1       -0.2228
     24 C          62.3988   84.9306   11.4295 C.ar    1  UNL1        0.1749
     25 N          61.4082   86.0565   11.4604 N.ar    1  UNL1       -0.3361
     26 H          60.8272   86.2955   12.2184 H       1  UNL1        0.1673
     27 C          59.1782   87.2656    7.6831 C.3     1  UNL1        0.0033
     28 C          59.6290   87.0220    9.0929 C.3     1  UNL1        0.0369
@<TRIPOS>BOND
     1    27    28    1
     2    28    18    1
     3    18    19    1
     4    18     1    1
     5     1     2   ar
     6     2     3   ar
     7     3     4   ar
     8     4     7    1
     9     7     8   ar
    10     8     9   ar
    11     9    10   ar
    12    10    11   ar
    13    11    13    1
    14    13    14   am
    15    14    15    1
    16    14    16    2
    17    11    12   ar
    18     4     5   ar
    19     5     6   ar
    20    18    21    1
    21    21    22   ar
    22    22    23   ar
    23    23    24   ar
    24    24    25   ar
    25     6     1   ar
    26    25    21   ar
    27    12     7   ar
    28    19    20    1
    29    13    17    1
    30    25    26    1
@<TRIPOS>MOLECULE
*****
 28 30 0 0 0
SMALL
GASTEIGER

@<TRIPOS>ATOM
      1 C          65.0229   91.5273   13.2832 C.ar    1  UNL1        0.0070
      2 C          64.4383   91.9843   11.9796 C.ar    1  UNL1       -0.0017
      3 C          63.4629   91.1108   11.2479 C.ar    1  UNL1       -0.0002
      4 C          63.0720   89.7803   11.8198 C.ar    1  UNL1        0.0000
      5 C          63.6566   89.3233   13.1234 C.ar    1  UNL1       -0.0002
      6 C          64.6321   90.1968   13.8551 C.ar    1  UNL1       -0.0017
      7 C          62.0965   88.9068   11.0880 C.ar    1  UNL1        0.0012
      8 C          60.6267   89.0325   11.3599 C.ar    1  UNL1        0.0001
      9 C          59.6512   88.1590   10.6281 C.ar    1  UNL1        0.0013
     10 C          60.1456   87.1598    9.6244 C.ar    1  UNL1        0.0147
     11 C          61.6154   87.0342    9.3526 C.ar    1  UNL1        0.0503
     12 C          62.5908   87.9077   10.0844 C.ar    1  UNL1        0.0147
     13 N          62.1098   86.0350    8.3490 N.am    1  UNL1       -0.2839
     14 C          61.1664   85.4637    7.3321 C.2     1  UNL1        0.2266
     15 C          61.6608   84.4646    6.3285 C.3     1  UNL1        0.0949
     16 O          59.7289   85.8917    7.3190 O.2     1  UNL1       -0.2748
     17 H          63.0533   85.7541    8.3576 H       1  UNL1        0.1549
     18 C          65.9984   92.4008   14.0150 C.3     1  UNL1        0.1411
     19 O          65.5796   91.7799   15.3146 O.3     1  UNL1       -0.3771
     20 H          65.9160   90.8713   15.3621 H       1  UNL1        0.2112
     21 C          66.4172   93.0218   12.7154 C.ar    1  UNL1        0.0825
     22 C          67.2745   92.3779   11.6664 C.ar    1  UNL1        0.1157
     23 N          67.4394   93.3539   10.5392 N.ar    1  UNL1       -0.2228
     24 C          66.6840   94.6010   10.8917 C.ar    1  UNL1        0.1749
     25 N          66.0523   94.3958   12.2366 N.ar    1  UNL1       -0.3361
     26 H          65.4959   95.0482   12.7202 H       1  UNL1        0.1673
     27 C          67.4092   92.9125   16.1358 C.3     1  UNL1        0.0033
     28 C          66.9739   93.2743   14.7467 C.3     1  UNL1        0.0369
@<TRIPOS>BOND
     1    27    28    1
     2    28    18    1
     3    18    19    1
     4    18     1    1
     5     1     2   ar
     6     2     3   ar
     7     3     4   ar
     8     4     7    1
     9     7     8   ar
    10     8     9   ar
    11     9    10   ar
    12    10    11   ar
    13    11    13    1
    14    13    14   am
    15    14    15    1
    16    14    16    2
    17    11    12   ar
    18     4     5   ar
    19     5     6   ar
    20    18    21    1
    21    21    22   ar
    22    22    23   ar
    23    23    24   ar
    24    24    25   ar
    25     6     1   ar
    26    25    21   ar
    27    12     7   ar
    28    19    20    1
    29    13    17    1
    30    25    26    1
@<TRIPOS>MOLECULE
*****
 28 30 0 0 0
SMALL
GASTEIGER

@<TRIPOS>ATOM
      1 C          61.5143   88.8562   10.1734 C.ar    1  UNL1        0.0070
      2 C          62.1451   88.6597   11.5201 C.ar    1  UNL1       -0.0017
      3 C          63.1444   89.6541   12.0324 C.ar    1  UNL1       -0.0002
      4 C          63.5130   90.8449   11.1981 C.ar    1  UNL1        0.0000
      5 C          62.8822   91.0414    9.8515 C.ar    1  UNL1       -0.0002
      6 C          61.8829   90.0471    9.3391 C.ar    1  UNL1       -0.0017
      7 C          64.5124   91.8393   11.7106 C.ar    1  UNL1        0.0012
      8 C          64.9449   92.9834   10.8423 C.ar    1  UNL1        0.0001
      9 C          65.9443   93.9778   11.3547 C.ar    1  UNL1        0.0013
     10 C          66.5111   93.8280   12.7354 C.ar    1  UNL1        0.0147
     11 C          66.0786   92.6838   13.6037 C.ar    1  UNL1        0.0503
     12 C          65.0792   91.6895   13.0912 C.ar    1  UNL1        0.0147
     13 N          66.6454   92.5339   14.9843 N.am    1  UNL1       -0.2839
     14 C          68.1236   92.3626   15.1737 C.2     1  UNL1        0.2266
     15 C          68.6904   92.2127   16.5544 C.3     1  UNL1        0.0949
     16 O          69.0348   92.3410   13.9824 O.2     1  UNL1       -0.2748
     17 H          66.0473   92.5481   15.7662 H       1  UNL1        0.1549
     18 C          60.5149   87.8619    9.6610 C.3     1  UNL1        0.1411
     19 O          59.6395   88.9848    9.1891 O.3     1  UNL1       -0.3771
     20 H          60.0453   89.4083    8.4165 H       1  UNL1        0.2112
     21 C          61.3903   86.7389   10.1329 C.ar    1  UNL1        0.0825
     22 C          62.4385   86.0372    9.3212 C.ar    1  UNL1        0.1157
     23 N          63.0673   84.9851   10.1860 N.ar    1  UNL1       -0.2228
     24 C          62.4076   85.0366   11.5323 C.ar    1  UNL1        0.1749
     25 N          61.3712   86.1205   11.4994 N.ar    1  UNL1       -0.3361
     26 H          60.7819   86.3804   12.2440 H       1  UNL1        0.1673
     27 C          59.1343   86.8669    7.6979 C.3     1  UNL1        0.0033
     28 C          59.5156   86.8675    9.1486 C.3     1  UNL1        0.0369
@<TRIPOS>BOND
     1    27    28    1
     2    28    18    1
     3    18    19    1
     4    18     1    1
     5     1     2   ar
     6     2     3   ar
     7     3     4   ar
     8     4     7    1
     9     7     8   ar
    10     8     9   ar
    11     9    10   ar
    12    10    11   ar
    13    11    13    1
    14    13    14   am
    15    14    15    1
    16    14    16    2
    17    11    12   ar
    18     4     5   ar
    19     5     6   ar
    20    18    21    1
    21    21    22   ar
    22    22    23   ar
    23    23    24   ar
    24    24    25   ar
    25     6     1   ar
    26    25    21   ar
    27    12     7   ar
    28    19    20    1
    29    13    17    1
    30    25    26    1
@<TRIPOS>MOLECULE
*****
 28 30 0 0 0
SMALL
GASTEIGER

@<TRIPOS>ATOM
      1 C          62.3246   89.1509   10.8452 C.ar    1  UNL1        0.0070
      2 C          62.9275   89.0752   12.2166 C.ar    1  UNL1       -0.0017
      3 C          63.8441   90.1624   12.6939 C.ar    1  UNL1       -0.0002
      4 C          64.1578   91.3252   11.7999 C.ar    1  UNL1        0.0000
      5 C          63.5550   91.4009   10.4285 C.ar    1  UNL1       -0.0002
      6 C          62.6384   90.3138    9.9511 C.ar    1  UNL1       -0.0017
      7 C          65.0745   92.4124   12.2773 C.ar    1  UNL1        0.0012
      8 C          65.7066   92.3184   13.6343 C.ar    1  UNL1        0.0001
      9 C          66.6232   93.4056   14.1117 C.ar    1  UNL1        0.0013
     10 C          66.9077   94.5868   13.2321 C.ar    1  UNL1        0.0147
     11 C          66.2755   94.6808   11.8750 C.ar    1  UNL1        0.0503
     12 C          65.3589   93.5936   11.3976 C.ar    1  UNL1        0.0147
     13 N          66.5600   95.8620   10.9953 N.am    1  UNL1       -0.2839
     14 C          67.2419   95.6659    9.6737 C.2     1  UNL1        0.2266
     15 C          67.5264   96.8471    8.7940 C.3     1  UNL1        0.0949
     16 O          67.6394   94.2887    9.2318 O.2     1  UNL1       -0.2748
     17 H          66.2992   96.7659   11.2854 H       1  UNL1        0.1549
     18 C          61.4080   88.0637   10.3678 C.3     1  UNL1        0.1411
     19 O          62.5453   87.4329    9.6205 O.3     1  UNL1       -0.3771
     20 H          63.1633   87.0312   10.2511 H       1  UNL1        0.2112
     21 C          60.2707   88.6946   11.1151 C.ar    1  UNL1        0.0825
     22 C          59.7452   90.0847   10.9117 C.ar    1  UNL1        0.1157
     23 N          58.6088   90.2953   11.8679 N.ar    1  UNL1       -0.2228
     24 C          58.4319   89.0353   12.6623 C.ar    1  UNL1        0.1749
     25 N          59.4590   88.0460   12.1971 N.ar    1  UNL1       -0.3361
     26 H          59.5792   87.1315   12.5414 H       1  UNL1        0.1673
     27 C          60.5349   86.5341    8.4578 C.3     1  UNL1        0.0033
     28 C          60.4914   86.9766    9.8904 C.3     1  UNL1        0.0369
@<TRIPOS>BOND
     1    27    28    1
     2    28    18    1
     3    18    19    1
     4    18     1    1
     5     1     2   ar
     6     2     3   ar
     7     3     4   ar
     8     4     7    1
     9     7     8   ar
    10     8     9   ar
    11     9    10   ar
    12    10    11   ar
    13    11    13    1
    14    13    14   am
    15    14    15    1
    16    14    16    2
    17    11    12   ar
    18     4     5   ar
    19     5     6   ar
    20    18    21    1
    21    21    22   ar
    22    22    23   ar
    23    23    24   ar
    24    24    25   ar
    25     6     1   ar
    26    25    21   ar
    27    12     7   ar
    28    19    20    1
    29    13    17    1
    30    25    26    1
@<TRIPOS>MOLECULE
*****
 28 30 0 0 0
SMALL
GASTEIGER

@<TRIPOS>ATOM
      1 C          62.2301   89.1813   10.6652 C.ar    1  UNL1        0.0070
      2 C          62.8282   89.2379   12.0395 C.ar    1  UNL1       -0.0017
      3 C          63.7411   90.3676   12.4142 C.ar    1  UNL1       -0.0002
      4 C          64.0559   91.4406   11.4145 C.ar    1  UNL1        0.0000
      5 C          63.4578   91.3840   10.0401 C.ar    1  UNL1       -0.0002
      6 C          62.5449   90.2543    9.6654 C.ar    1  UNL1       -0.0017
      7 C          64.9689   92.5703   11.7892 C.ar    1  UNL1        0.0012
      8 C          65.2378   93.6739   10.8095 C.ar    1  UNL1        0.0001
      9 C          66.1507   94.8036   11.1843 C.ar    1  UNL1        0.0013
     10 C          66.7948   94.8296   12.5387 C.ar    1  UNL1        0.0147
     11 C          66.5259   93.7260   13.5184 C.ar    1  UNL1        0.0503
     12 C          65.6130   92.5964   13.1436 C.ar    1  UNL1        0.0147
     13 N          67.1699   93.7520   14.8728 N.am    1  UNL1       -0.2839
     14 C          68.4719   93.0419   15.0980 C.2     1  UNL1        0.2266
     15 C          69.1160   93.0680   16.4524 C.3     1  UNL1        0.0949
     16 O          69.1298   92.3058   13.9687 O.2     1  UNL1       -0.2748
     17 H          66.7382   94.2352   15.6140 H       1  UNL1        0.1549
     18 C          61.3171   88.0516   10.2904 C.3     1  UNL1        0.1411
     19 O          62.4231   87.4209    9.4973 O.3     1  UNL1       -0.3771
     20 H          63.0908   87.0618   10.1024 H       1  UNL1        0.2112
     21 C          60.2112   88.6823   11.0835 C.ar    1  UNL1        0.0825
     22 C          59.6727   90.0698   10.8967 C.ar    1  UNL1        0.1157
     23 N          58.5782   90.2813   11.9005 N.ar    1  UNL1       -0.2228
     24 C          58.4404   89.0245   12.7078 C.ar    1  UNL1        0.1749
     25 N          59.4496   88.0363   12.2029 N.ar    1  UNL1       -0.3361
     26 H          59.5879   87.1239   12.5459 H       1  UNL1        0.1673
     27 C          60.4248   86.3722    8.5203 C.3     1  UNL1        0.0033
     28 C          60.4042   86.9220    9.9157 C.3     1  UNL1        0.0369
@<TRIPOS>BOND
     1    27    28    1
     2    28    18    1
     3    18    19    1
     4    18     1    1
     5     1     2   ar
     6     2     3   ar
     7     3     4   ar
     8     4     7    1
     9     7     8   ar
    10     8     9   ar
    11     9    10   ar
    12    10    11   ar
    13    11    13    1
    14    13    14   am
    15    14    15    1
    16    14    16    2
    17    11    12   ar
    18     4     5   ar
    19     5     6   ar
    20    18    21    1
    21    21    22   ar
    22    22    23   ar
    23    23    24   ar
    24    24    25   ar
    25     6     1   ar
    26    25    21   ar
    27    12     7   ar
    28    19    20    1
    29    13    17    1
    30    25    26    1
@<TRIPOS>MOLECULE
*****
 28 30 0 0 0
SMALL
GASTEIGER

@<TRIPOS>ATOM
      1 C          63.2681   83.9538   14.2746 C.ar    1  UNL1        0.0070
      2 C          63.1311   84.9620   13.1725 C.ar    1  UNL1       -0.0017
      3 C          63.3290   86.4205   13.4614 C.ar    1  UNL1       -0.0002
      4 C          63.6640   86.8708   14.8525 C.ar    1  UNL1        0.0000
      5 C          63.8010   85.8626   15.9546 C.ar    1  UNL1       -0.0002
      6 C          63.6031   84.4041   15.6657 C.ar    1  UNL1       -0.0017
      7 C          63.8620   88.3294   15.1414 C.ar    1  UNL1        0.0012
      8 C          63.3308   88.9209   16.4133 C.ar    1  UNL1        0.0001
      9 C          63.5287   90.3795   16.7022 C.ar    1  UNL1        0.0013
     10 C          64.2579   91.2465   15.7191 C.ar    1  UNL1        0.0147
     11 C          64.7891   90.6549   14.4471 C.ar    1  UNL1        0.0503
     12 C          64.5912   89.1964   14.1582 C.ar    1  UNL1        0.0147
     13 N          65.5183   91.5220   13.4639 N.am    1  UNL1       -0.2839
     14 C          64.8777   91.8726   12.1537 C.2     1  UNL1        0.2266
     15 C          65.6068   92.7397   11.1706 C.3     1  UNL1        0.0949
     16 O          63.5079   91.3562   11.8266 O.2     1  UNL1       -0.2748
     17 H          66.4173   91.8609   13.6786 H       1  UNL1        0.1549
     18 C          63.0702   82.4952   13.9857 C.3     1  UNL1        0.1411
     19 O          62.6073   82.2786   15.3960 O.3     1  UNL1       -0.3771
     20 H          61.7275   82.6705   15.5113 H       1  UNL1        0.2112
     21 C          63.5330   82.7117   12.5755 C.ar    1  UNL1        0.0825
     22 C          64.9589   82.8144   12.1214 C.ar    1  UNL1        0.1157
     23 N          64.9584   83.0298   10.6369 N.ar    1  UNL1       -0.2228
     24 C          63.5320   83.0602   10.1735 C.ar    1  UNL1        0.1749
     25 N          62.6511   82.8637   11.3715 N.ar    1  UNL1       -0.3361
     26 H          61.6669   82.8388   11.3683 H       1  UNL1        0.1673
     27 C          61.5011   80.4344   13.7825 C.3     1  UNL1        0.0033
     28 C          62.8722   81.0367   13.6968 C.3     1  UNL1        0.0369
@<TRIPOS>BOND
     1    27    28    1
     2    28    18    1
     3    18    19    1
     4    18     1    1
     5     1     2   ar
     6     2     3   ar
     7     3     4   ar
     8     4     7    1
     9     7     8   ar
    10     8     9   ar
    11     9    10   ar
    12    10    11   ar
    13    11    13    1
    14    13    14   am
    15    14    15    1
    16    14    16    2
    17    11    12   ar
    18     4     5   ar
    19     5     6   ar
    20    18    21    1
    21    21    22   ar
    22    22    23   ar
    23    23    24   ar
    24    24    25   ar
    25     6     1   ar
    26    25    21   ar
    27    12     7   ar
    28    19    20    1
    29    13    17    1
    30    25    26    1
@<TRIPOS>MOLECULE
*****
 28 30 0 0 0
SMALL
GASTEIGER

@<TRIPOS>ATOM
      1 C          64.1093   84.0083   12.6021 C.ar    1  UNL1        0.0070
      2 C          63.2808   85.1320   12.0536 C.ar    1  UNL1       -0.0017
      3 C          63.2002   86.4346   12.7930 C.ar    1  UNL1       -0.0002
      4 C          63.9482   86.6135   14.0808 C.ar    1  UNL1        0.0000
      5 C          64.7767   85.4899   14.6293 C.ar    1  UNL1       -0.0002
      6 C          64.8573   84.1873   13.8900 C.ar    1  UNL1       -0.0017
      7 C          63.8675   87.9162   14.8202 C.ar    1  UNL1        0.0012
      8 C          63.3380   87.9508   16.2232 C.ar    1  UNL1        0.0001
      9 C          63.2573   89.2535   16.9625 C.ar    1  UNL1        0.0013
     10 C          63.7063   90.5215   16.2989 C.ar    1  UNL1        0.0147
     11 C          64.2360   90.4869   14.8959 C.ar    1  UNL1        0.0503
     12 C          64.3165   89.1843   14.1566 C.ar    1  UNL1        0.0147
     13 N          64.6850   91.7550   14.2322 N.am    1  UNL1       -0.2839
     14 C          66.1211   92.1793   14.3195 C.2     1  UNL1        0.2266
     15 C          66.5701   93.4474   13.6558 C.3     1  UNL1        0.0949
     16 O          67.1081   91.3356   15.0703 O.2     1  UNL1       -0.2748
     17 H          64.0371   92.3087   13.7394 H       1  UNL1        0.1549
     18 C          64.1899   82.7057   11.8627 C.3     1  UNL1        0.1411
     19 O          65.0638   83.3479   10.8264 O.3     1  UNL1       -0.3771
     20 H          65.9409   83.5186   11.2039 H       1  UNL1        0.2112
     21 C          63.3161   82.0635   12.8990 C.ar    1  UNL1        0.0825
     22 C          63.6628   80.8568   13.7198 C.ar    1  UNL1        0.1157
     23 N          62.5030   80.5627   14.6246 N.ar    1  UNL1       -0.2228
     24 C          61.4395   81.5877   14.3630 C.ar    1  UNL1        0.1749
     25 N          61.9420   82.5152   13.2965 N.ar    1  UNL1       -0.3361
     26 H          61.4554   83.2852   12.9230 H       1  UNL1        0.1673
     27 C          63.1574   80.9911   10.2062 C.3     1  UNL1        0.0033
     28 C          64.2705   81.4030   11.1234 C.3     1  UNL1        0.0369
@<TRIPOS>BOND
     1    27    28    1
     2    28    18    1
     3    18    19    1
     4    18     1    1
     5     1     2   ar
     6     2     3   ar
     7     3     4   ar
     8     4     7    1
     9     7     8   ar
    10     8     9   ar
    11     9    10   ar
    12    10    11   ar
    13    11    13    1
    14    13    14   am
    15    14    15    1
    16    14    16    2
    17    11    12   ar
    18     4     5   ar
    19     5     6   ar
    20    18    21    1
    21    21    22   ar
    22    22    23   ar
    23    23    24   ar
    24    24    25   ar
    25     6     1   ar
    26    25    21   ar
    27    12     7   ar
    28    19    20    1
    29    13    17    1
    30    25    26    1
