@<TRIPOS>MOLECULE
*****
 40 44 0 0 0
SMALL
GASTEIGER

@<TRIPOS>ATOM
      1 N          61.2833   88.8479   10.0252 N.am    1  UNL1       -0.2655
      2 C          60.9007   89.6591    8.8230 C.2     1  UNL1        0.3076
      3 O          61.5337   90.9989    8.5898 O.2     1  UNL1       -0.2522
      4 N          59.8850   89.1307    7.8539 N.am    1  UNL1       -0.2681
      5 H          59.4695   88.2514    8.0069 H       1  UNL1        0.1564
      6 C          59.5024   89.9420    6.6516 C.ar    1  UNL1        0.0517
      7 C          58.0552   90.1447    6.3131 C.ar    1  UNL1        0.0170
      8 C          57.6726   90.9559    5.1109 C.ar    1  UNL1        0.0309
      9 C          58.7371   91.5646    4.2472 C.ar    1  UNL1        0.1441
     10 F          58.3545   92.3760    3.0449 F       1  UNL1       -0.2042
     11 C          60.1843   91.3620    4.5856 C.ar    1  UNL1        0.1000
     12 C          60.5670   90.5507    5.7878 C.ar    1  UNL1        0.0208
     13 C          61.2489   91.9707    3.7217 C.3     1  UNL1        0.4207
     14 F          62.3135   92.5794    2.8579 F       1  UNL1       -0.1658
     15 F          62.1412   90.7961    3.9938 F       1  UNL1       -0.1658
     16 F          60.3566   93.1453    3.4497 F       1  UNL1       -0.1658
     17 C          62.2989   89.3763   10.9943 C.3     1  UNL1        0.0771
     18 C          62.7257   88.7161   12.2718 C.3     1  UNL1        0.0202
     19 C          63.7567   89.5895   12.9231 C.3     1  UNL1        0.0058
     20 C          63.9671   90.7896   12.0482 C.3     1  UNL1        0.0206
     21 C          63.9617   91.8536   10.9909 C.3     1  UNL1        0.0061
     22 C          63.0661   90.6579   10.8562 C.3     1  UNL1        0.0223
     23 C          64.9991   91.4406   12.9205 C.ar    1  UNL1       -0.0227
     24 C          65.4151   90.7878   14.2054 C.ar    1  UNL1       -0.0036
     25 C          66.4471   91.4388   15.0777 C.ar    1  UNL1        0.0100
     26 C          67.0633   92.7427   14.6652 C.ar    1  UNL1        0.0684
     27 C          66.6473   93.3956   13.3804 C.ar    1  UNL1        0.0100
     28 C          65.6153   92.7446   12.5080 C.ar    1  UNL1       -0.0036
     29 C          68.0953   93.3938   15.5375 C.1     1  UNL1        0.1004
     30 N          69.1275   94.0448   16.4098 N.1     1  UNL1       -0.1908
     31 C          60.6502   87.5081   10.2584 C.3     1  UNL1        0.0963
     32 C          61.1144   86.3135    9.4791 C.3     1  UNL1        0.0389
     33 C          62.5376   85.8527    9.5896 C.3     1  UNL1        0.0739
     34 C          63.9552   81.3550   13.2992 C.3     1  UNL1        0.0897
     35 N          63.6008   82.4794   12.3718 N.3     1  UNL1       -0.2691
     36 C          64.0661   82.4507   10.9461 C.3     1  UNL1        0.0897
     37 C          63.7117   83.5751   10.0187 C.3     1  UNL1        0.0897
     38 N          62.8920   84.7282   10.5170 N.3     1  UNL1       -0.2703
     39 C          62.4267   84.7570   11.9427 C.3     1  UNL1        0.0897
     40 C          62.7812   83.6326   12.8701 C.3     1  UNL1        0.0897
@<TRIPOS>BOND
     1    34    35    1
     2    35    36    1
     3    36    37    1
     4    37    38    1
     5    38    33    1
     6    33    32    1
     7    32    31    1
     8    31     1    1
     9     1     2   am
    10     2     3    2
    11     2     4   am
    12     4     6    1
    13     6     7   ar
    14     7     8   ar
    15     8     9   ar
    16     9    10    1
    17     9    11   ar
    18    11    13    1
    19    13    14    1
    20    13    15    1
    21    13    16    1
    22    11    12   ar
    23     1    17    1
    24    17    18    1
    25    18    19    1
    26    19    20    1
    27    20    23    1
    28    23    24   ar
    29    24    25   ar
    30    25    26   ar
    31    26    29    1
    32    29    30    3
    33    26    27   ar
    34    27    28   ar
    35    20    21    1
    36    21    22    1
    37    38    39    1
    38    39    40    1
    39    40    35    1
    40    12     6   ar
    41    22    17    1
    42    22    20    1
    43    28    23   ar
    44     4     5    1
@<TRIPOS>MOLECULE
*****
 40 44 0 0 0
SMALL
GASTEIGER

@<TRIPOS>ATOM
      1 N          63.9090   90.7656   13.2664 N.am    1  UNL1       -0.2655
      2 C          64.7071   91.5453   12.2639 C.2     1  UNL1        0.3076
      3 O          65.2008   90.8769   11.0150 O.2     1  UNL1       -0.2522
      4 N          65.0116   92.9932   12.5102 N.am    1  UNL1       -0.2681
      5 H          64.6876   93.4319   13.3299 H       1  UNL1        0.1564
      6 C          65.8098   93.7729   11.5076 C.ar    1  UNL1        0.0517
      7 C          65.6882   95.2669   11.4504 C.ar    1  UNL1        0.0170
      8 C          66.4863   96.0465   10.4479 C.ar    1  UNL1        0.0309
      9 C          67.4059   95.3322    9.5024 C.ar    1  UNL1        0.1441
     10 F          68.2041   96.1118    8.4998 F       1  UNL1       -0.2042
     11 C          67.5275   93.8382    9.5596 C.ar    1  UNL1        0.1000
     12 C          66.7294   93.0586   10.5621 C.ar    1  UNL1        0.0208
     13 C          68.4472   93.1239    8.6140 C.3     1  UNL1        0.4207
     14 F          69.3669   92.4096    7.6686 F       1  UNL1       -0.1658
     15 F          69.0596   92.3858    9.7674 F       1  UNL1       -0.1658
     16 F          67.8349   93.8620    7.4607 F       1  UNL1       -0.1658
     17 C          63.6046   89.3176   13.0202 C.3     1  UNL1        0.0771
     18 C          62.7909   88.7683   11.8861 C.3     1  UNL1        0.0202
     19 C          62.7437   87.2759   12.0297 C.3     1  UNL1        0.0058
     20 C          63.5283   86.9029   13.2526 C.3     1  UNL1        0.0206
     21 C          64.3590   86.8392   14.4999 C.3     1  UNL1        0.0061
     22 C          64.0603   88.1648   13.8647 C.3     1  UNL1        0.0223
     23 C          63.3075   85.4240   13.1355 C.ar    1  UNL1       -0.0227
     24 C          63.4663   84.5441   14.3399 C.ar    1  UNL1       -0.0036
     25 C          63.2455   83.0652   14.2228 C.ar    1  UNL1        0.0100
     26 C          62.8659   82.4659   12.9012 C.ar    1  UNL1        0.0684
     27 C          62.7070   83.3456   11.6966 C.ar    1  UNL1        0.0100
     28 C          62.9278   84.8247   11.8138 C.ar    1  UNL1       -0.0036
     29 C          62.6451   80.9868   12.7840 C.1     1  UNL1        0.1004
     30 N          62.4242   79.5078   12.6669 N.1     1  UNL1       -0.1908
     31 C          63.4154   91.4339   14.5154 C.3     1  UNL1        0.0963
     32 C          64.0739   91.1441   15.8315 C.3     1  UNL1        0.0389
     33 C          65.0347   92.1325   16.4232 C.3     1  UNL1        0.0739
     34 C          70.5196   92.7606   14.0735 C.3     1  UNL1        0.0897
     35 N          69.1483   92.6036   14.6609 N.3     1  UNL1       -0.2691
     36 C          68.7042   93.4997   15.7788 C.3     1  UNL1        0.0897
     37 C          67.3329   93.3427   16.3662 C.3     1  UNL1        0.0897
     38 N          66.4059   92.2895   15.8358 N.3     1  UNL1       -0.2703
     39 C          66.8501   91.3934   14.7180 C.3     1  UNL1        0.0897
     40 C          68.2213   91.5504   14.1305 C.3     1  UNL1        0.0897
@<TRIPOS>BOND
     1    34    35    1
     2    35    36    1
     3    36    37    1
     4    37    38    1
     5    38    33    1
     6    33    32    1
     7    32    31    1
     8    31     1    1
     9     1     2   am
    10     2     3    2
    11     2     4   am
    12     4     6    1
    13     6     7   ar
    14     7     8   ar
    15     8     9   ar
    16     9    10    1
    17     9    11   ar
    18    11    13    1
    19    13    14    1
    20    13    15    1
    21    13    16    1
    22    11    12   ar
    23     1    17    1
    24    17    18    1
    25    18    19    1
    26    19    20    1
    27    20    23    1
    28    23    24   ar
    29    24    25   ar
    30    25    26   ar
    31    26    29    1
    32    29    30    3
    33    26    27   ar
    34    27    28   ar
    35    20    21    1
    36    21    22    1
    37    38    39    1
    38    39    40    1
    39    40    35    1
    40    12     6   ar
    41    22    17    1
    42    22    20    1
    43    28    23   ar
    44     4     5    1
@<TRIPOS>MOLECULE
*****
 40 44 0 0 0
SMALL
GASTEIGER

@<TRIPOS>ATOM
      1 N          62.9627   88.1360   12.9423 N.am    1  UNL1       -0.2655
      2 C          63.9945   88.9069   13.7110 C.2     1  UNL1        0.3076
      3 O          65.1318   88.1853   14.3714 O.2     1  UNL1       -0.2522
      4 N          63.8892   90.3992   13.8193 N.am    1  UNL1       -0.2681
      5 H          63.1428   90.8728   13.3859 H       1  UNL1        0.1564
      6 C          64.9212   91.1701   14.5881 C.ar    1  UNL1        0.0517
      7 C          64.5511   91.8364   15.8800 C.ar    1  UNL1        0.0170
      8 C          65.5830   92.6073   16.6488 C.ar    1  UNL1        0.0309
      9 C          66.9849   92.7118   16.1256 C.ar    1  UNL1        0.1441
     10 F          68.0168   93.4826   16.8944 F       1  UNL1       -0.2042
     11 C          67.3549   92.0454   14.8337 C.ar    1  UNL1        0.1000
     12 C          66.3230   91.2746   14.0649 C.ar    1  UNL1        0.0208
     13 C          68.7569   92.1499   14.3105 C.3     1  UNL1        0.4207
     14 F          70.1588   92.2544   13.7873 F       1  UNL1       -0.1658
     15 F          68.2332   92.1380   12.9050 F       1  UNL1       -0.1658
     16 F          69.2805   92.1619   15.7161 F       1  UNL1       -0.1658
     17 C          63.0680   86.6436   12.8339 C.3     1  UNL1        0.0771
     18 C          63.8015   85.7405   13.7806 C.3     1  UNL1        0.0202
     19 C          63.6452   84.3310   13.2917 C.3     1  UNL1        0.0058
     20 C          62.8150   84.3631   12.0428 C.3     1  UNL1        0.0206
     21 C          61.9810   84.7048   10.8437 C.3     1  UNL1        0.0061
     22 C          62.4583   85.7923   11.7599 C.3     1  UNL1        0.0223
     23 C          62.8330   82.8823   11.8045 C.ar    1  UNL1       -0.0227
     24 C          63.2486   82.3426   10.4681 C.ar    1  UNL1       -0.0036
     25 C          63.2666   80.8618   10.2298 C.ar    1  UNL1        0.0100
     26 C          62.8689   79.9206   11.3280 C.ar    1  UNL1        0.0684
     27 C          62.4532   80.4602   12.6645 C.ar    1  UNL1        0.0100
     28 C          62.4352   81.9411   12.9027 C.ar    1  UNL1       -0.0036
     29 C          62.8868   78.4397   11.0898 C.1     1  UNL1        0.1004
     30 N          62.9046   76.9588   10.8516 N.1     1  UNL1       -0.1908
     31 C          61.8254   88.8575   12.2818 C.3     1  UNL1        0.0963
     32 C          61.9142   89.2289   10.8312 C.3     1  UNL1        0.0389
     33 C          60.7969   88.8724    9.8960 C.3     1  UNL1        0.0739
     34 C          61.3380   84.1463    6.2394 C.3     1  UNL1        0.0897
     35 N          61.2027   85.3278    7.1535 N.3     1  UNL1       -0.2691
     36 C          59.8672   85.9859    7.3360 C.3     1  UNL1        0.0897
     37 C          59.7320   87.1674    8.2502 C.3     1  UNL1        0.0897
     38 N          60.9322   87.6908    8.9819 N.3     1  UNL1       -0.2703
     39 C          62.2677   87.0327    8.7994 C.3     1  UNL1        0.0897
     40 C          62.4029   85.8512    7.8853 C.3     1  UNL1        0.0897
@<TRIPOS>BOND
     1    34    35    1
     2    35    36    1
     3    36    37    1
     4    37    38    1
     5    38    33    1
     6    33    32    1
     7    32    31    1
     8    31     1    1
     9     1     2   am
    10     2     3    2
    11     2     4   am
    12     4     6    1
    13     6     7   ar
    14     7     8   ar
    15     8     9   ar
    16     9    10    1
    17     9    11   ar
    18    11    13    1
    19    13    14    1
    20    13    15    1
    21    13    16    1
    22    11    12   ar
    23     1    17    1
    24    17    18    1
    25    18    19    1
    26    19    20    1
    27    20    23    1
    28    23    24   ar
    29    24    25   ar
    30    25    26   ar
    31    26    29    1
    32    29    30    3
    33    26    27   ar
    34    27    28   ar
    35    20    21    1
    36    21    22    1
    37    38    39    1
    38    39    40    1
    39    40    35    1
    40    12     6   ar
    41    22    17    1
    42    22    20    1
    43    28    23   ar
    44     4     5    1
@<TRIPOS>MOLECULE
*****
 40 44 0 0 0
SMALL
GASTEIGER

@<TRIPOS>ATOM
      1 N          61.4227   88.9061   10.2844 N.am    1  UNL1       -0.2655
      2 C          61.0803   89.6698    9.0397 C.2     1  UNL1        0.3076
      3 O          61.7646   90.9721    8.7467 O.2     1  UNL1       -0.2522
      4 N          60.0536   89.1313    8.0879 N.am    1  UNL1       -0.2681
      5 H          59.6045   88.2766    8.2801 H       1  UNL1        0.1564
      6 C          59.7112   89.8952    6.8431 C.ar    1  UNL1        0.0517
      7 C          60.7926   90.2772    5.8763 C.ar    1  UNL1        0.0170
      8 C          60.4503   91.0410    4.6316 C.ar    1  UNL1        0.0309
      9 C          59.0266   91.4227    4.3536 C.ar    1  UNL1        0.1441
     10 F          58.6843   92.1866    3.1088 F       1  UNL1       -0.2042
     11 C          57.9452   91.0407    5.3204 C.ar    1  UNL1        0.1000
     12 C          58.2875   90.2769    6.5651 C.ar    1  UNL1        0.0208
     13 C          56.5215   91.4225    5.0424 C.3     1  UNL1        0.4207
     14 F          55.0978   91.8043    4.7644 F       1  UNL1       -0.1658
     15 F          56.1127   89.9842    5.1606 F       1  UNL1       -0.1658
     16 F          56.9302   92.8609    4.9241 F       1  UNL1       -0.1658
     17 C          62.4494   89.4446   11.2362 C.3     1  UNL1        0.0771
     18 C          62.9077   88.7863   12.5037 C.3     1  UNL1        0.0202
     19 C          63.9396   89.6708   13.1385 C.3     1  UNL1        0.0058
     20 C          64.1191   90.8756   12.2633 C.3     1  UNL1        0.0206
     21 C          64.0811   91.9422   11.2092 C.3     1  UNL1        0.0061
     22 C          63.1981   90.7358   11.0876 C.3     1  UNL1        0.0223
     23 C          65.1589   91.5371   13.1183 C.ar    1  UNL1       -0.0227
     24 C          65.6896   92.8890   12.7430 C.ar    1  UNL1       -0.0036
     25 C          66.7294   93.5504   13.5980 C.ar    1  UNL1        0.0100
     26 C          67.2386   92.8601   14.8285 C.ar    1  UNL1        0.0684
     27 C          66.7079   91.5082   15.2039 C.ar    1  UNL1        0.0100
     28 C          65.6681   90.8467   14.3488 C.ar    1  UNL1       -0.0036
     29 C          68.2784   93.5215   15.6837 C.1     1  UNL1        0.1004
     30 N          69.3183   94.1828   16.5388 N.1     1  UNL1       -0.1908
     31 C          60.7384   87.6038   10.5774 C.3     1  UNL1        0.0963
     32 C          61.0958   86.3758    9.7937 C.3     1  UNL1        0.0389
     33 C          62.5013   85.8524    9.8192 C.3     1  UNL1        0.0739
     34 C          63.9418   81.2995   13.4517 C.3     1  UNL1        0.0897
     35 N          63.5817   82.4377   12.5436 N.3     1  UNL1       -0.2691
     36 C          62.7868   83.5953   13.0709 C.3     1  UNL1        0.0897
     37 C          62.4267   84.7335   12.1628 C.3     1  UNL1        0.0897
     38 N          62.8614   84.7142   10.7273 N.3     1  UNL1       -0.2703
     39 C          63.6563   83.5566   10.2000 C.3     1  UNL1        0.0897
     40 C          64.0164   82.4184   11.1082 C.3     1  UNL1        0.0897
@<TRIPOS>BOND
     1    34    35    1
     2    35    36    1
     3    36    37    1
     4    37    38    1
     5    38    33    1
     6    33    32    1
     7    32    31    1
     8    31     1    1
     9     1     2   am
    10     2     3    2
    11     2     4   am
    12     4     6    1
    13     6     7   ar
    14     7     8   ar
    15     8     9   ar
    16     9    10    1
    17     9    11   ar
    18    11    13    1
    19    13    14    1
    20    13    15    1
    21    13    16    1
    22    11    12   ar
    23     1    17    1
    24    17    18    1
    25    18    19    1
    26    19    20    1
    27    20    23    1
    28    23    24   ar
    29    24    25   ar
    30    25    26   ar
    31    26    29    1
    32    29    30    3
    33    26    27   ar
    34    27    28   ar
    35    20    21    1
    36    21    22    1
    37    38    39    1
    38    39    40    1
    39    40    35    1
    40    12     6   ar
    41    22    17    1
    42    22    20    1
    43    28    23   ar
    44     4     5    1
@<TRIPOS>MOLECULE
*****
 40 44 0 0 0
SMALL
GASTEIGER

@<TRIPOS>ATOM
      1 N          62.4372   88.3270   12.3326 N.am    1  UNL1       -0.2655
      2 C          62.7827   86.9025   12.6510 C.2     1  UNL1        0.3076
      3 O          64.0803   86.5793   13.3306 O.2     1  UNL1       -0.2522
      4 N          61.8306   85.8011   12.2899 N.am    1  UNL1       -0.2681
      5 H          60.9789   86.0132   11.8439 H       1  UNL1        0.1564
      6 C          62.1761   84.3766   12.6084 C.ar    1  UNL1        0.0517
      7 C          62.1897   83.9087   14.0335 C.ar    1  UNL1        0.0170
      8 C          62.5352   82.4843   14.3520 C.ar    1  UNL1        0.0309
      9 C          62.8670   81.5276   13.2454 C.ar    1  UNL1        0.1441
     10 F          63.2125   80.1031   13.5638 F       1  UNL1       -0.2042
     11 C          62.8534   81.9955   11.8203 C.ar    1  UNL1        0.1000
     12 C          62.5080   83.4199   11.5018 C.ar    1  UNL1        0.0208
     13 C          63.1853   81.0387   10.7136 C.3     1  UNL1        0.4207
     14 F          63.5173   80.0821    9.6070 F       1  UNL1       -0.1658
     15 F          63.9281   82.1265    9.9960 F       1  UNL1       -0.1658
     16 F          62.4426   79.9510   11.4312 F       1  UNL1       -0.1658
     17 C          63.3894   89.4284   12.6937 C.3     1  UNL1        0.0771
     18 C          63.6065   90.6951   11.9202 C.3     1  UNL1        0.0202
     19 C          64.6429   91.5060   12.6402 C.3     1  UNL1        0.0058
     20 C          65.0663   90.7405   13.8586 C.3     1  UNL1        0.0206
     21 C          65.2825   89.7626   14.9753 C.3     1  UNL1        0.0061
     22 C          64.2916   89.4564   13.8917 C.3     1  UNL1        0.0223
     23 C          66.0574   91.7557   14.3451 C.ar    1  UNL1       -0.0227
     24 C          67.0702   91.3770   15.3848 C.ar    1  UNL1       -0.0036
     25 C          68.0613   92.3923   15.8712 C.ar    1  UNL1        0.0100
     26 C          68.0398   93.7864   15.3181 C.ar    1  UNL1        0.0684
     27 C          67.0271   94.1652   14.2784 C.ar    1  UNL1        0.0100
     28 C          66.0359   93.1499   13.7919 C.ar    1  UNL1       -0.0036
     29 C          69.0310   94.8018   15.8045 C.1     1  UNL1        0.1004
     30 N          70.0221   95.8173   16.2909 N.1     1  UNL1       -0.1908
     31 C          61.1396   88.6502   11.6530 C.3     1  UNL1        0.0963
     32 C          60.9973   88.4487   10.1734 C.3     1  UNL1        0.0389
     33 C          60.2144   87.2825    9.6472 C.3     1  UNL1        0.0739
     34 C          62.5594   83.7742    5.3818 C.3     1  UNL1        0.0897
     35 N          61.9731   84.6513    6.4481 N.3     1  UNL1       -0.2691
     36 C          60.5361   85.0734    6.3660 C.3     1  UNL1        0.0897
     37 C          59.9499   85.9505    7.4323 C.3     1  UNL1        0.0897
     38 N          60.8006   86.4054    8.5808 N.3     1  UNL1       -0.2703
     39 C          62.2376   85.9833    8.6630 C.3     1  UNL1        0.0897
     40 C          62.8239   85.1062    7.5967 C.3     1  UNL1        0.0897
@<TRIPOS>BOND
     1    34    35    1
     2    35    36    1
     3    36    37    1
     4    37    38    1
     5    38    33    1
     6    33    32    1
     7    32    31    1
     8    31     1    1
     9     1     2   am
    10     2     3    2
    11     2     4   am
    12     4     6    1
    13     6     7   ar
    14     7     8   ar
    15     8     9   ar
    16     9    10    1
    17     9    11   ar
    18    11    13    1
    19    13    14    1
    20    13    15    1
    21    13    16    1
    22    11    12   ar
    23     1    17    1
    24    17    18    1
    25    18    19    1
    26    19    20    1
    27    20    23    1
    28    23    24   ar
    29    24    25   ar
    30    25    26   ar
    31    26    29    1
    32    29    30    3
    33    26    27   ar
    34    27    28   ar
    35    20    21    1
    36    21    22    1
    37    38    39    1
    38    39    40    1
    39    40    35    1
    40    12     6   ar
    41    22    17    1
    42    22    20    1
    43    28    23   ar
    44     4     5    1
@<TRIPOS>MOLECULE
*****
 40 44 0 0 0
SMALL
GASTEIGER

@<TRIPOS>ATOM
      1 N          60.2769   87.7090   10.5694 N.am    1  UNL1       -0.2655
      2 C          61.2563   86.5821   10.7137 C.2     1  UNL1        0.3076
      3 O          61.9725   86.0517    9.5072 O.2     1  UNL1       -0.2522
      4 N          61.5195   85.9855   12.0646 N.am    1  UNL1       -0.2681
      5 H          61.0494   86.3336   12.8565 H       1  UNL1        0.1564
      6 C          62.4989   84.8585   12.2089 C.ar    1  UNL1        0.0517
      7 C          63.6148   84.9578   13.2063 C.ar    1  UNL1        0.0170
      8 C          64.5942   83.8309   13.3506 C.ar    1  UNL1        0.0309
      9 C          64.4576   82.6047   12.4975 C.ar    1  UNL1        0.1441
     10 F          65.4370   81.4777   12.6417 F       1  UNL1       -0.2042
     11 C          63.3417   82.5055   11.5000 C.ar    1  UNL1        0.1000
     12 C          62.3623   83.6324   11.3558 C.ar    1  UNL1        0.0208
     13 C          63.2051   81.2793   10.6469 C.3     1  UNL1        0.4207
     14 F          63.0686   80.0531    9.7938 F       1  UNL1       -0.1658
     15 F          64.0493   81.9227    9.5870 F       1  UNL1       -0.1658
     16 F          62.3610   80.6358   11.7068 F       1  UNL1       -0.1658
     17 C          60.0137   88.3056    9.2186 C.3     1  UNL1        0.0771
     18 C          59.1931   87.6867    8.1261 C.3     1  UNL1        0.0202
     19 C          59.1972   88.6244    6.9553 C.3     1  UNL1        0.0058
     20 C          60.0203   89.8229    7.3242 C.3     1  UNL1        0.0206
     21 C          60.8801   90.8712    7.9660 C.3     1  UNL1        0.0061
     22 C          60.5249   89.6259    8.7230 C.3     1  UNL1        0.0223
     23 C          59.8446   90.5415    6.0194 C.ar    1  UNL1       -0.0227
     24 C          58.4803   90.9935    5.5898 C.ar    1  UNL1       -0.0036
     25 C          58.3046   91.7121    4.2849 C.ar    1  UNL1        0.0100
     26 C          59.4932   91.9787    3.4096 C.ar    1  UNL1        0.0684
     27 C          60.8575   91.5267    3.8391 C.ar    1  UNL1        0.0100
     28 C          61.0332   90.8081    5.1440 C.ar    1  UNL1       -0.0036
     29 C          59.3176   92.6973    2.1047 C.1     1  UNL1        0.1004
     30 N          59.1420   93.4158    0.7997 N.1     1  UNL1       -0.1908
     31 C          59.5607   88.2395   11.7760 C.3     1  UNL1        0.0963
     32 C          60.0380   89.4977   12.4386 C.3     1  UNL1        0.0389
     33 C          61.3767   89.5281   13.1145 C.3     1  UNL1        0.0739
     34 C          65.8425   92.7855   10.7806 C.3     1  UNL1        0.0897
     35 N          64.7260   91.9711   11.3641 N.3     1  UNL1       -0.2691
     36 C          64.7394   91.6153   12.8212 C.3     1  UNL1        0.0897
     37 C          63.6230   90.8009   13.4046 C.3     1  UNL1        0.0897
     38 N          62.4932   90.3425   12.5310 N.3     1  UNL1       -0.2703
     39 C          62.4798   90.6983   11.0739 C.3     1  UNL1        0.0897
     40 C          63.5962   91.5127   10.4905 C.3     1  UNL1        0.0897
@<TRIPOS>BOND
     1    34    35    1
     2    35    36    1
     3    36    37    1
     4    37    38    1
     5    38    33    1
     6    33    32    1
     7    32    31    1
     8    31     1    1
     9     1     2   am
    10     2     3    2
    11     2     4   am
    12     4     6    1
    13     6     7   ar
    14     7     8   ar
    15     8     9   ar
    16     9    10    1
    17     9    11   ar
    18    11    13    1
    19    13    14    1
    20    13    15    1
    21    13    16    1
    22    11    12   ar
    23     1    17    1
    24    17    18    1
    25    18    19    1
    26    19    20    1
    27    20    23    1
    28    23    24   ar
    29    24    25   ar
    30    25    26   ar
    31    26    29    1
    32    29    30    3
    33    26    27   ar
    34    27    28   ar
    35    20    21    1
    36    21    22    1
    37    38    39    1
    38    39    40    1
    39    40    35    1
    40    12     6   ar
    41    22    17    1
    42    22    20    1
    43    28    23   ar
    44     4     5    1
@<TRIPOS>MOLECULE
*****
 40 44 0 0 0
SMALL
GASTEIGER

@<TRIPOS>ATOM
      1 N          62.3080   88.9479   10.3610 N.am    1  UNL1       -0.2655
      2 C          63.2617   89.8227   11.1193 C.2     1  UNL1        0.3076
      3 O          64.1134   89.2375   12.2067 O.2     1  UNL1       -0.2522
      4 N          63.3637   91.2826   10.7904 N.am    1  UNL1       -0.2681
      5 H          62.8047   91.6667   10.0767 H       1  UNL1        0.1564
      6 C          64.3175   92.1574   11.5488 C.ar    1  UNL1        0.0517
      7 C          64.6010   91.8802   12.9955 C.ar    1  UNL1        0.0170
      8 C          65.5547   92.7549   13.7539 C.ar    1  UNL1        0.0309
      9 C          66.2249   93.9068   13.0656 C.ar    1  UNL1        0.1441
     10 F          67.1787   94.7816   13.8241 F       1  UNL1       -0.2042
     11 C          65.9415   94.1840   11.6190 C.ar    1  UNL1        0.1000
     12 C          64.9878   93.3093   10.8606 C.ar    1  UNL1        0.0208
     13 C          66.6118   95.3361   10.9308 C.3     1  UNL1        0.4207
     14 F          67.2821   96.4881   10.2426 F       1  UNL1       -0.1658
     15 F          65.7662   96.2960   11.7140 F       1  UNL1       -0.1658
     16 F          67.4574   94.3762   10.1475 F       1  UNL1       -0.1658
     17 C          62.2059   87.4880   10.6899 C.3     1  UNL1        0.0771
     18 C          61.4652   86.4545    9.8941 C.3     1  UNL1        0.0202
     19 C          61.6281   85.1330   10.5848 C.3     1  UNL1        0.0058
     20 C          62.4696   85.3497   11.8075 C.3     1  UNL1        0.0206
     21 C          63.3139   85.8652   12.9350 C.3     1  UNL1        0.0061
     22 C          62.8266   86.8051   11.8724 C.3     1  UNL1        0.0223
     23 C          62.4560   83.9205   12.2624 C.ar    1  UNL1       -0.0227
     24 C          62.1895   83.5940   13.7020 C.ar    1  UNL1       -0.0036
     25 C          62.1760   82.1648   14.1569 C.ar    1  UNL1        0.0100
     26 C          62.4290   81.0619   13.1723 C.ar    1  UNL1        0.0684
     27 C          62.6955   81.3882   11.7326 C.ar    1  UNL1        0.0100
     28 C          62.7091   82.8175   11.2777 C.ar    1  UNL1       -0.0036
     29 C          62.4155   79.6326   13.6272 C.1     1  UNL1        0.1004
     30 N          62.4019   78.2033   14.0821 N.1     1  UNL1       -0.1908
     31 C          61.4562   89.5330    9.2736 C.3     1  UNL1        0.0963
     32 C          60.0480   89.0527    9.0836 C.3     1  UNL1        0.0389
     33 C          59.5661   88.6638    7.7175 C.3     1  UNL1        0.0739
     34 C          59.3403   92.7583    3.3375 C.3     1  UNL1        0.0897
     35 N          59.3968   91.7347    4.4325 N.3     1  UNL1       -0.2691
     36 C          58.1408   91.3281    5.1446 C.3     1  UNL1        0.0897
     37 C          58.1972   90.3045    6.2396 C.3     1  UNL1        0.0897
     38 N          59.5096   89.6874    6.6225 N.3     1  UNL1       -0.2703
     39 C          60.7656   90.0940    5.9104 C.3     1  UNL1        0.0897
     40 C          60.7092   91.1176    4.8154 C.3     1  UNL1        0.0897
@<TRIPOS>BOND
     1    34    35    1
     2    35    36    1
     3    36    37    1
     4    37    38    1
     5    38    33    1
     6    33    32    1
     7    32    31    1
     8    31     1    1
     9     1     2   am
    10     2     3    2
    11     2     4   am
    12     4     6    1
    13     6     7   ar
    14     7     8   ar
    15     8     9   ar
    16     9    10    1
    17     9    11   ar
    18    11    13    1
    19    13    14    1
    20    13    15    1
    21    13    16    1
    22    11    12   ar
    23     1    17    1
    24    17    18    1
    25    18    19    1
    26    19    20    1
    27    20    23    1
    28    23    24   ar
    29    24    25   ar
    30    25    26   ar
    31    26    29    1
    32    29    30    3
    33    26    27   ar
    34    27    28   ar
    35    20    21    1
    36    21    22    1
    37    38    39    1
    38    39    40    1
    39    40    35    1
    40    12     6   ar
    41    22    17    1
    42    22    20    1
    43    28    23   ar
    44     4     5    1
@<TRIPOS>MOLECULE
*****
 40 44 0 0 0
SMALL
GASTEIGER

@<TRIPOS>ATOM
      1 N          62.9822   89.4215   13.7563 N.am    1  UNL1       -0.2655
      2 C          64.2055   90.2728   13.9256 C.2     1  UNL1        0.3076
      3 O          65.1076   90.5308   12.7552 O.2     1  UNL1       -0.2522
      4 N          64.5268   90.8663   15.2652 N.am    1  UNL1       -0.2681
      5 H          63.9347   90.6970   16.0334 H       1  UNL1        0.1564
      6 C          65.7501   91.7177   15.4344 C.ar    1  UNL1        0.0517
      7 C          65.7468   92.8478   16.4208 C.ar    1  UNL1        0.0170
      8 C          66.9700   93.6992   16.5900 C.ar    1  UNL1        0.0309
      9 C          68.1966   93.4205   15.7729 C.ar    1  UNL1        0.1441
     10 F          69.4200   94.2719   15.9421 F       1  UNL1       -0.2042
     11 C          68.2000   92.2904   14.7866 C.ar    1  UNL1        0.1000
     12 C          66.9767   91.4390   14.6173 C.ar    1  UNL1        0.0208
     13 C          69.4267   92.0117   13.9694 C.3     1  UNL1        0.4207
     14 F          70.6533   91.7331   13.1523 F       1  UNL1       -0.1658
     15 F          68.5635   91.6383   12.8010 F       1  UNL1       -0.1658
     16 F          70.2899   92.3852   15.1379 F       1  UNL1       -0.1658
     17 C          62.6609   88.8280   12.4167 C.3     1  UNL1        0.0771
     18 C          62.2188   89.5855   11.1999 C.3     1  UNL1        0.0202
     19 C          62.0100   88.5986   10.0898 C.3     1  UNL1        0.0058
     20 C          62.3231   87.2310   10.6206 C.3     1  UNL1        0.0206
     21 C          62.6961   86.0167   11.4183 C.3     1  UNL1        0.0061
     22 C          62.7253   87.3728   12.0587 C.3     1  UNL1        0.0223
     23 C          62.0363   86.4978    9.3439 C.ar    1  UNL1       -0.0227
     24 C          60.6919   86.6262    8.6909 C.ar    1  UNL1       -0.0036
     25 C          60.4052   85.8930    7.4142 C.ar    1  UNL1        0.0100
     26 C          61.4627   85.0315    6.7902 C.ar    1  UNL1        0.0684
     27 C          62.8071   84.9031    7.4431 C.ar    1  UNL1        0.0100
     28 C          63.0939   85.6363    8.7199 C.ar    1  UNL1       -0.0036
     29 C          61.1760   84.2983    5.5134 C.1     1  UNL1        0.1004
     30 N          60.8894   83.5651    4.2366 N.1     1  UNL1       -0.1908
     31 C          62.0801   89.1635   14.9268 C.3     1  UNL1        0.0963
     32 C          62.6161   89.2672   16.3239 C.3     1  UNL1        0.0389
     33 C          63.0821   88.0354   17.0418 C.3     1  UNL1        0.0739
     34 C          63.7563   82.8861   14.0368 C.3     1  UNL1        0.0897
     35 N          63.5878   84.1734   14.7881 N.3     1  UNL1       -0.2691
     36 C          64.5595   85.2967   14.5787 C.3     1  UNL1        0.0897
     37 C          64.3909   86.5840   15.3299 C.3     1  UNL1        0.0897
     38 N          63.2507   86.7481   16.2905 N.3     1  UNL1       -0.2703
     39 C          62.2790   85.6247   16.4999 C.3     1  UNL1        0.0897
     40 C          62.4475   84.3374   15.7487 C.3     1  UNL1        0.0897
@<TRIPOS>BOND
     1    34    35    1
     2    35    36    1
     3    36    37    1
     4    37    38    1
     5    38    33    1
     6    33    32    1
     7    32    31    1
     8    31     1    1
     9     1     2   am
    10     2     3    2
    11     2     4   am
    12     4     6    1
    13     6     7   ar
    14     7     8   ar
    15     8     9   ar
    16     9    10    1
    17     9    11   ar
    18    11    13    1
    19    13    14    1
    20    13    15    1
    21    13    16    1
    22    11    12   ar
    23     1    17    1
    24    17    18    1
    25    18    19    1
    26    19    20    1
    27    20    23    1
    28    23    24   ar
    29    24    25   ar
    30    25    26   ar
    31    26    29    1
    32    29    30    3
    33    26    27   ar
    34    27    28   ar
    35    20    21    1
    36    21    22    1
    37    38    39    1
    38    39    40    1
    39    40    35    1
    40    12     6   ar
    41    22    17    1
    42    22    20    1
    43    28    23   ar
    44     4     5    1
@<TRIPOS>MOLECULE
*****
 40 44 0 0 0
SMALL
GASTEIGER

@<TRIPOS>ATOM
      1 N          63.2676   88.7825   14.1823 N.am    1  UNL1       -0.2655
      2 C          64.2743   89.8919   14.1064 C.2     1  UNL1        0.3076
      3 O          65.0093   90.1514   12.8248 O.2     1  UNL1       -0.2522
      4 N          64.5459   90.7419   15.3121 N.am    1  UNL1       -0.2681
      5 H          64.0635   90.5716   16.1533 H       1  UNL1        0.1564
      6 C          65.5526   91.8513   15.2362 C.ar    1  UNL1        0.0517
      7 C          66.4875   92.0956   16.3835 C.ar    1  UNL1        0.0170
      8 C          67.4942   93.2050   16.3077 C.ar    1  UNL1        0.0309
      9 C          67.5660   94.0701   15.0845 C.ar    1  UNL1        0.1441
     10 F          68.5727   95.1796   15.0086 F       1  UNL1       -0.2042
     11 C          66.6311   93.8259   13.9371 C.ar    1  UNL1        0.1000
     12 C          65.6244   92.7165   14.0130 C.ar    1  UNL1        0.0208
     13 C          66.7029   94.6912   12.7139 C.3     1  UNL1        0.4207
     14 F          66.7748   95.5563   11.4907 F       1  UNL1       -0.1658
     15 F          67.0287   93.4868   11.8812 F       1  UNL1       -0.1658
     16 F          66.3772   95.8955   13.5466 F       1  UNL1       -0.1658
     17 C          62.9959   87.9325   12.9766 C.3     1  UNL1        0.0771
     18 C          63.0737   86.4357   12.9173 C.3     1  UNL1        0.0202
     19 C          62.7246   86.0081   11.5226 C.3     1  UNL1        0.0058
     20 C          62.4311   87.2408   10.7198 C.3     1  UNL1        0.0206
     21 C          62.2005   88.6232   10.1852 C.3     1  UNL1        0.0061
     22 C          62.5988   88.4300   11.6184 C.3     1  UNL1        0.0223
     23 C          62.1303   86.5243    9.4368 C.ar    1  UNL1       -0.0227
     24 C          63.1580   85.6197    8.8240 C.ar    1  UNL1       -0.0036
     25 C          62.8571   84.9033    7.5411 C.ar    1  UNL1        0.0100
     26 C          61.5285   85.0914    6.8707 C.ar    1  UNL1        0.0684
     27 C          60.5007   85.9960    7.4834 C.ar    1  UNL1        0.0100
     28 C          60.8016   86.7125    8.7665 C.ar    1  UNL1       -0.0036
     29 C          61.2276   84.3749    5.5877 C.1     1  UNL1        0.1004
     30 N          60.9265   83.6585    4.3047 N.1     1  UNL1       -0.1908
     31 C          62.5326   88.5230   15.4639 C.3     1  UNL1        0.0963
     32 C          63.2643   87.9648   16.6484 C.3     1  UNL1        0.0389
     33 C          63.0033   86.5572   17.0961 C.3     1  UNL1        0.0739
     34 C          63.8982   81.9898   13.3097 C.3     1  UNL1        0.0897
     35 N          63.6745   83.1316   14.2563 N.3     1  UNL1       -0.2691
     36 C          62.3255   83.3360   14.8794 C.3     1  UNL1        0.0897
     37 C          62.1017   84.4778   15.8260 C.3     1  UNL1        0.0897
     38 N          63.2270   85.4154   16.1495 N.3     1  UNL1       -0.2703
     39 C          64.5761   85.2110   15.5264 C.3     1  UNL1        0.0897
     40 C          64.7998   84.0692   14.5798 C.3     1  UNL1        0.0897
@<TRIPOS>BOND
     1    34    35    1
     2    35    36    1
     3    36    37    1
     4    37    38    1
     5    38    33    1
     6    33    32    1
     7    32    31    1
     8    31     1    1
     9     1     2   am
    10     2     3    2
    11     2     4   am
    12     4     6    1
    13     6     7   ar
    14     7     8   ar
    15     8     9   ar
    16     9    10    1
    17     9    11   ar
    18    11    13    1
    19    13    14    1
    20    13    15    1
    21    13    16    1
    22    11    12   ar
    23     1    17    1
    24    17    18    1
    25    18    19    1
    26    19    20    1
    27    20    23    1
    28    23    24   ar
    29    24    25   ar
    30    25    26   ar
    31    26    29    1
    32    29    30    3
    33    26    27   ar
    34    27    28   ar
    35    20    21    1
    36    21    22    1
    37    38    39    1
    38    39    40    1
    39    40    35    1
    40    12     6   ar
    41    22    17    1
    42    22    20    1
    43    28    23   ar
    44     4     5    1
