@<TRIPOS>MOLECULE
*****
 12 12 0 0 0
SMALL
GASTEIGER

@<TRIPOS>ATOM
      1 C          63.8112   89.5365   15.5705 C.ar    1  UNL1        0.0094
      2 C          64.3985   88.6520   14.5109 C.ar    1  UNL1       -0.0013
      3 C          64.3116   87.1607   14.6459 C.ar    1  UNL1        0.0055
      4 C          63.6374   86.5538   15.8405 C.ar    1  UNL1        0.0300
      5 I          63.5505   85.0624   15.9755 I       1  UNL1       -0.0425
      6 C          63.0501   87.4383   16.9001 C.ar    1  UNL1        0.0055
      7 C          63.1371   88.9296   16.7651 C.ar    1  UNL1       -0.0013
      8 C          63.8982   91.0279   15.4354 C.3     1  UNL1        0.1924
      9 N          64.5481   92.8583   17.1609 N.3     1  UNL1       -0.2135
     10 O          63.5349   91.9083   16.5943 O.3     1  UNL1       -0.2843
     11 H          64.1338   93.3738   17.9374 H       1  UNL1        0.1501
     12 H          64.8424   93.5134   16.4365 H       1  UNL1        0.1501
@<TRIPOS>BOND
     1     9    10    1
     2    10     8    1
     3     8     1    1
     4     1     2   ar
     5     2     3   ar
     6     3     4   ar
     7     4     5    1
     8     4     6   ar
     9     6     7   ar
    10     7     1   ar
    11     9    11    1
    12     9    12    1
@<TRIPOS>MOLECULE
*****
 12 12 0 0 0
SMALL
GASTEIGER

@<TRIPOS>ATOM
      1 C          61.6170   86.3218    9.4315 C.ar    1  UNL1        0.0094
      2 C          61.5103   85.8944   10.8653 C.ar    1  UNL1       -0.0013
      3 C          62.3536   84.7639   11.3757 C.ar    1  UNL1        0.0055
      4 C          63.3038   84.0607   10.4523 C.ar    1  UNL1        0.0300
      5 I          64.1472   82.9301   10.9628 I       1  UNL1       -0.0425
      6 C          63.4106   84.4881    9.0185 C.ar    1  UNL1        0.0055
      7 C          62.5672   85.6186    8.5081 C.ar    1  UNL1       -0.0013
      8 C          60.7737   87.4524    8.9211 C.3     1  UNL1        0.1924
      9 N          58.5596   86.6998    7.7890 N.3     1  UNL1       -0.2135
     10 O          59.2780   87.3401    8.9396 O.3     1  UNL1       -0.2843
     11 H          57.5555   86.7086    7.9678 H       1  UNL1        0.1501
     12 H          58.8778   85.7364    7.6833 H       1  UNL1        0.1501
@<TRIPOS>BOND
     1     9    10    1
     2    10     8    1
     3     8     1    1
     4     1     2   ar
     5     2     3   ar
     6     3     4   ar
     7     4     5    1
     8     4     6   ar
     9     6     7   ar
    10     7     1   ar
    11     9    11    1
    12     9    12    1
@<TRIPOS>MOLECULE
*****
 12 12 0 0 0
SMALL
GASTEIGER

@<TRIPOS>ATOM
      1 C          64.8806   91.3449   14.1571 C.ar    1  UNL1        0.0094
      2 C          66.3046   91.8144   14.2006 C.ar    1  UNL1       -0.0013
      3 C          66.9543   92.3548   12.9613 C.ar    1  UNL1        0.0055
      4 C          66.1800   92.4258   11.6786 C.ar    1  UNL1        0.0300
      5 I          66.8297   92.9663   10.4393 I       1  UNL1       -0.0425
      6 C          64.7561   91.9564   11.6351 C.ar    1  UNL1        0.0055
      7 C          64.1064   91.4159   12.8744 C.ar    1  UNL1       -0.0013
      8 C          64.2309   90.8044   15.3964 C.3     1  UNL1        0.1924
      9 N          64.4374   92.7417   17.1152 N.3     1  UNL1       -0.2135
     10 O          63.5951   91.7419   16.3797 O.3     1  UNL1       -0.2843
     11 H          63.8458   93.2922   17.7376 H       1  UNL1        0.1501
     12 H          64.8940   93.3602   16.4449 H       1  UNL1        0.1501
@<TRIPOS>BOND
     1     9    10    1
     2    10     8    1
     3     8     1    1
     4     1     2   ar
     5     2     3   ar
     6     3     4   ar
     7     4     5    1
     8     4     6   ar
     9     6     7   ar
    10     7     1   ar
    11     9    11    1
    12     9    12    1
@<TRIPOS>MOLECULE
*****
 12 12 0 0 0
SMALL
GASTEIGER

@<TRIPOS>ATOM
      1 C          63.6085   83.3602   12.2245 C.ar    1  UNL1        0.0094
      2 C          63.9678   83.2082   10.7761 C.ar    1  UNL1       -0.0013
      3 C          63.4261   84.1734    9.7637 C.ar    1  UNL1        0.0055
      4 C          62.5250   85.2906   10.1996 C.ar    1  UNL1        0.0300
      5 I          61.9833   86.2557    9.1872 I       1  UNL1       -0.0425
      6 C          62.1657   85.4426   11.6480 C.ar    1  UNL1        0.0055
      7 C          62.7075   84.4774   12.6604 C.ar    1  UNL1       -0.0013
      8 C          64.1502   82.3951   13.2369 C.3     1  UNL1        0.1924
      9 N          62.1922   81.5202   14.7035 N.3     1  UNL1       -0.2135
     10 O          63.4888   82.2637   14.5768 O.3     1  UNL1       -0.2843
     11 H          61.8886   81.5296   15.6772 H       1  UNL1        0.1501
     12 H          62.3219   80.5560   14.3971 H       1  UNL1        0.1501
@<TRIPOS>BOND
     1     9    10    1
     2    10     8    1
     3     8     1    1
     4     1     2   ar
     5     2     3   ar
     6     3     4   ar
     7     4     5    1
     8     4     6   ar
     9     6     7   ar
    10     7     1   ar
    11     9    11    1
    12     9    12    1
@<TRIPOS>MOLECULE
*****
 12 12 0 0 0
SMALL
GASTEIGER

@<TRIPOS>ATOM
      1 C          65.1615   91.2376   13.8680 C.ar    1  UNL1        0.0094
      2 C          65.0003   92.0144   12.5951 C.ar    1  UNL1       -0.0013
      3 C          64.0625   91.5250   11.5315 C.ar    1  UNL1        0.0055
      4 C          63.2861   90.2589   11.7409 C.ar    1  UNL1        0.0300
      5 I          62.3483   89.7695   10.6773 I       1  UNL1       -0.0425
      6 C          63.4473   89.4821   13.0139 C.ar    1  UNL1        0.0055
      7 C          64.3851   89.9714   14.0775 C.ar    1  UNL1       -0.0013
      8 C          66.0993   91.7269   14.9316 C.3     1  UNL1        0.1924
      9 N          64.7152   92.6956   16.9054 N.3     1  UNL1       -0.2135
     10 O          65.7098   92.8870   15.7990 O.3     1  UNL1       -0.2843
     11 H          64.5696   93.5819   17.3888 H       1  UNL1        0.1501
     12 H          65.0695   92.0028   17.5650 H       1  UNL1        0.1501
@<TRIPOS>BOND
     1     9    10    1
     2    10     8    1
     3     8     1    1
     4     1     2   ar
     5     2     3   ar
     6     3     4   ar
     7     4     5    1
     8     4     6   ar
     9     6     7   ar
    10     7     1   ar
    11     9    11    1
    12     9    12    1
@<TRIPOS>MOLECULE
*****
 12 12 0 0 0
SMALL
GASTEIGER

@<TRIPOS>ATOM
      1 C          65.7604   92.4096   12.9349 C.ar    1  UNL1        0.0094
      2 C          64.9108   91.3714   13.6058 C.ar    1  UNL1       -0.0013
      3 C          63.8211   90.6834   12.8381 C.ar    1  UNL1        0.0055
      4 C          63.5810   91.0337   11.3995 C.ar    1  UNL1        0.0300
      5 I          62.4914   90.3457   10.6319 I       1  UNL1       -0.0425
      6 C          64.4306   92.0719   10.7286 C.ar    1  UNL1        0.0055
      7 C          65.5203   92.7599   11.4963 C.ar    1  UNL1       -0.0013
      8 C          66.8500   93.0976   13.7026 C.3     1  UNL1        0.1924
      9 N          68.8374   91.6628   12.8415 N.3     1  UNL1       -0.2135
     10 O          68.1488   92.3917   13.9570 O.3     1  UNL1       -0.2843
     11 H          69.7002   91.2448   13.1899 H       1  UNL1        0.1501
     12 H          69.0560   92.3181   12.0910 H       1  UNL1        0.1501
@<TRIPOS>BOND
     1     9    10    1
     2    10     8    1
     3     8     1    1
     4     1     2   ar
     5     2     3   ar
     6     3     4   ar
     7     4     5    1
     8     4     6   ar
     9     6     7   ar
    10     7     1   ar
    11     9    11    1
    12     9    12    1
@<TRIPOS>MOLECULE
*****
 12 12 0 0 0
SMALL
GASTEIGER

@<TRIPOS>ATOM
      1 C          66.0304   92.9419   11.0880 C.ar    1  UNL1        0.0094
      2 C          66.6383   92.9082   12.4589 C.ar    1  UNL1       -0.0013
      3 C          65.9971   92.0950   13.5440 C.ar    1  UNL1        0.0055
      4 C          64.7479   91.3154   13.2582 C.ar    1  UNL1        0.0300
      5 I          64.1067   90.5021   14.3433 I       1  UNL1       -0.0425
      6 C          64.1400   91.3490   11.8874 C.ar    1  UNL1        0.0055
      7 C          64.7812   92.1623   10.8023 C.ar    1  UNL1       -0.0013
      8 C          66.6716   93.7551   10.0030 C.3     1  UNL1        0.1924
      9 N          69.0957   92.8500    9.7701 N.3     1  UNL1       -0.2135
     10 O          68.1530   93.9901   10.0177 O.3     1  UNL1       -0.2843
     11 H          70.0571   93.1876    9.8165 H       1  UNL1        0.1501
     12 H          68.9179   92.4563    8.8461 H       1  UNL1        0.1501
@<TRIPOS>BOND
     1     9    10    1
     2    10     8    1
     3     8     1    1
     4     1     2   ar
     5     2     3   ar
     6     3     4   ar
     7     4     5    1
     8     4     6   ar
     9     6     7   ar
    10     7     1   ar
    11     9    11    1
    12     9    12    1
@<TRIPOS>MOLECULE
*****
 12 12 0 0 0
SMALL
GASTEIGER

@<TRIPOS>ATOM
      1 C          63.1625   84.3495   10.0170 C.ar    1  UNL1        0.0094
      2 C          63.0270   85.1342    8.7459 C.ar    1  UNL1       -0.0013
      3 C          62.1524   86.3522    8.7060 C.ar    1  UNL1        0.0055
      4 C          61.4133   86.7855    9.9372 C.ar    1  UNL1        0.0300
      5 I          60.5388   88.0035    9.8973 I       1  UNL1       -0.0425
      6 C          61.5488   86.0008   11.2083 C.ar    1  UNL1        0.0055
      7 C          62.4234   84.7828   11.2482 C.ar    1  UNL1       -0.0013
      8 C          64.0371   83.1315   10.0569 C.3     1  UNL1        0.1924
      9 N          64.7223   82.3097   12.4244 N.3     1  UNL1       -0.2135
     10 O          65.0725   82.9866   11.1324 O.3     1  UNL1       -0.2843
     11 H          65.5391   82.2995   13.0352 H       1  UNL1        0.1501
     12 H          64.4259   81.3519   12.2370 H       1  UNL1        0.1501
@<TRIPOS>BOND
     1     9    10    1
     2    10     8    1
     3     8     1    1
     4     1     2   ar
     5     2     3   ar
     6     3     4   ar
     7     4     5    1
     8     4     6   ar
     9     6     7   ar
    10     7     1   ar
    11     9    11    1
    12     9    12    1
@<TRIPOS>MOLECULE
*****
 12 12 0 0 0
SMALL
GASTEIGER

@<TRIPOS>ATOM
      1 C          65.1489   92.2512   12.2687 C.ar    1  UNL1        0.0094
      2 C          64.5731   91.2488   13.2246 C.ar    1  UNL1       -0.0013
      3 C          63.5093   90.2974   12.7629 C.ar    1  UNL1        0.0055
      4 C          63.0213   90.3483   11.3455 C.ar    1  UNL1        0.0300
      5 I          61.9575   89.3969   10.8839 I       1  UNL1       -0.0425
      6 C          63.5971   91.3507   10.3897 C.ar    1  UNL1        0.0055
      7 C          64.6609   92.3022   10.8513 C.ar    1  UNL1       -0.0013
      8 C          66.2127   93.2027   12.7303 C.3     1  UNL1        0.1924
      9 N          65.9325   95.6293   11.8456 N.3     1  UNL1       -0.2135
     10 O          66.6614   94.3184   11.8338 O.3     1  UNL1       -0.2843
     11 H          66.3693   96.2672   11.1802 H       1  UNL1        0.1501
     12 H          65.9743   96.0331   12.7814 H       1  UNL1        0.1501
@<TRIPOS>BOND
     1     9    10    1
     2    10     8    1
     3     8     1    1
     4     1     2   ar
     5     2     3   ar
     6     3     4   ar
     7     4     5    1
     8     4     6   ar
     9     6     7   ar
    10     7     1   ar
    11     9    11    1
    12     9    12    1
