@<TRIPOS>MOLECULE
*****
 32 34 0 0 0
SMALL
GASTEIGER

@<TRIPOS>ATOM
      1 C          62.1178   90.2860   11.5801 C.2     1  UNL1        0.2489
      2 O          61.4338   89.3782   12.5588 O.2     1  UNL1       -0.2700
      3 N          61.5307   90.4968   10.2159 N.am    1  UNL1       -0.2984
      4 H          61.9796   91.0927    9.5735 H       1  UNL1        0.1498
      5 C          63.8548   90.9591   13.3910 C.ar    1  UNL1        0.1441
      6 C          65.1259   91.6562   13.7764 C.ar    1  UNL1        0.0520
      7 C          65.9309   92.3772   12.7361 C.ar    1  UNL1        0.0553
      8 N          67.2020   93.0743   13.1216 N.pl3   1  UNL1       -0.3563
      9 C          65.4649   92.4012   11.3106 C.ar    1  UNL1        0.0709
     10 CL         66.2700   93.1222   10.2704 Cl      1  UNL1       -0.0810
     11 C          64.1939   91.7041   10.9253 C.ar    1  UNL1        0.0202
     12 C          63.3889   90.9831   11.9655 C.ar    1  UNL1        0.0882
     13 H          67.5079   93.0586   14.0572 H       1  UNL1        0.1424
     14 H          67.7304   93.5476   12.4388 H       1  UNL1        0.1424
     15 O          63.0498   90.2381   14.4312 O.3     1  UNL1       -0.4753
     16 C          63.1551   89.0417   16.7350 C.3     1  UNL1        0.0512
     17 C          63.5264   90.1967   15.8529 C.3     1  UNL1        0.2055
     18 C          60.2597   89.7998    9.8305 C.3     1  UNL1        0.1207
     19 C          60.3137   88.4708    9.1371 C.3     1  UNL1        0.1507
     20 C          61.5449   87.6204    9.2404 C.3     1  UNL1        0.1041
     21 N          61.5989   86.2914    8.5470 N.3     1  UNL1       -0.2647
     22 C          60.4216   85.8128    7.7503 C.3     1  UNL1        0.1049
     23 C          59.1903   86.6632    7.6469 C.3     1  UNL1        0.1595
     24 O          59.1363   87.9922    8.3403 O.3     1  UNL1       -0.3516
     25 C          62.8303   85.4410    8.6504 C.3     1  UNL1        0.0993
     26 C          63.0838   84.6359    9.8904 C.ar    1  UNL1       -0.0060
     27 C          62.4384   85.0304   11.1858 C.ar    1  UNL1       -0.0006
     28 C          62.6919   84.2254   12.4258 C.ar    1  UNL1        0.0294
     29 C          63.5909   83.0258   12.3704 C.ar    1  UNL1        0.1401
     30 F          63.8444   82.2207   13.6104 F       1  UNL1       -0.2042
     31 C          64.2362   82.6313   11.0751 C.ar    1  UNL1        0.0294
     32 C          63.9827   83.4364    9.8351 C.ar    1  UNL1       -0.0006
@<TRIPOS>BOND
     1    16    17    1
     2    17    15    1
     3    15     5    1
     4     5     6   ar
     5     6     7   ar
     6     7     8    1
     7     7     9   ar
     8     9    10    1
     9     9    11   ar
    10    11    12   ar
    11    12     1    1
    12     1     2    2
    13     1     3   am
    14     3    18    1
    15    18    19    1
    16    19    20    1
    17    20    21    1
    18    21    25    1
    19    25    26    1
    20    26    27   ar
    21    27    28   ar
    22    28    29   ar
    23    29    30    1
    24    29    31   ar
    25    31    32   ar
    26    21    22    1
    27    22    23    1
    28    23    24    1
    29    12     5   ar
    30    24    19    1
    31    32    26   ar
    32     8    13    1
    33     8    14    1
    34     3     4    1
@<TRIPOS>MOLECULE
*****
 32 34 0 0 0
SMALL
GASTEIGER

@<TRIPOS>ATOM
      1 C          63.9739   89.1702   14.9886 C.2     1  UNL1        0.2489
      2 O          62.7393   89.4372   15.7976 O.2     1  UNL1       -0.2700
      3 N          64.5499   87.7863   14.9338 N.am    1  UNL1       -0.2984
      4 H          65.3602   87.6111   14.4028 H       1  UNL1        0.1498
      5 C          63.9961   90.8282   12.9885 C.ar    1  UNL1        0.1441
      6 C          64.6546   91.9451   12.2343 C.ar    1  UNL1        0.0520
      7 C          65.9495   92.5208   12.7260 C.ar    1  UNL1        0.0553
      8 N          66.6081   93.6378   11.9717 N.pl3   1  UNL1       -0.3563
      9 C          66.5859   91.9797   13.9718 C.ar    1  UNL1        0.0709
     10 CL         67.8808   92.5554   14.4635 Cl      1  UNL1       -0.0810
     11 C          65.9273   90.8628   14.7260 C.ar    1  UNL1        0.0202
     12 C          64.6324   90.2871   14.2343 C.ar    1  UNL1        0.0882
     13 H          66.1904   93.9929   11.1540 H       1  UNL1        0.1424
     14 H          67.4580   94.0156   12.2944 H       1  UNL1        0.1424
     15 O          62.7012   90.2525   12.4968 O.3     1  UNL1       -0.4753
     16 C          62.3987   89.4215   10.0539 C.3     1  UNL1        0.0512
     17 C          62.7091   89.1373   11.4937 C.3     1  UNL1        0.2055
     18 C          63.8914   86.6694   15.6880 C.3     1  UNL1        0.1207
     19 C          63.5478   85.3898   14.9847 C.3     1  UNL1        0.1507
     20 C          63.8016   85.2514   13.5129 C.3     1  UNL1        0.1041
     21 N          63.4579   83.9719   12.8096 N.3     1  UNL1       -0.2647
     22 C          62.8604   82.8307   13.5781 C.3     1  UNL1        0.1049
     23 C          62.6066   82.9691   15.0500 C.3     1  UNL1        0.1595
     24 O          62.9503   84.2486   15.7533 O.3     1  UNL1       -0.3516
     25 C          63.7118   83.8335   11.3376 C.3     1  UNL1        0.0993
     26 C          62.8968   84.6253   10.3584 C.ar    1  UNL1       -0.0060
     27 C          61.7287   85.4356   10.8369 C.ar    1  UNL1       -0.0006
     28 C          60.9137   86.2274    9.8576 C.ar    1  UNL1        0.0294
     29 C          61.2670   86.2089    8.3998 C.ar    1  UNL1        0.1401
     30 F          60.4520   87.0007    7.4206 F       1  UNL1       -0.2042
     31 C          62.4351   85.3986    7.9214 C.ar    1  UNL1        0.0294
     32 C          63.2500   84.6068    8.9007 C.ar    1  UNL1       -0.0006
@<TRIPOS>BOND
     1    16    17    1
     2    17    15    1
     3    15     5    1
     4     5     6   ar
     5     6     7   ar
     6     7     8    1
     7     7     9   ar
     8     9    10    1
     9     9    11   ar
    10    11    12   ar
    11    12     1    1
    12     1     2    2
    13     1     3   am
    14     3    18    1
    15    18    19    1
    16    19    20    1
    17    20    21    1
    18    21    25    1
    19    25    26    1
    20    26    27   ar
    21    27    28   ar
    22    28    29   ar
    23    29    30    1
    24    29    31   ar
    25    31    32   ar
    26    21    22    1
    27    22    23    1
    28    23    24    1
    29    12     5   ar
    30    24    19    1
    31    32    26   ar
    32     8    13    1
    33     8    14    1
    34     3     4    1
@<TRIPOS>MOLECULE
*****
 32 34 0 0 0
SMALL
GASTEIGER

@<TRIPOS>ATOM
      1 C          62.9014   86.4877   12.5246 C.2     1  UNL1        0.2489
      2 O          62.0267   86.8875   11.3735 O.2     1  UNL1       -0.2700
      3 N          63.6360   87.5353   13.3075 N.am    1  UNL1       -0.2984
      4 H          64.2100   87.2729   14.0631 H       1  UNL1        0.1498
      5 C          63.2490   84.6477   14.3256 C.ar    1  UNL1        0.1441
      6 C          63.3890   83.2004   14.6938 C.ar    1  UNL1        0.0520
      7 C          63.3215   82.1457   13.6293 C.ar    1  UNL1        0.0553
      8 N          63.4616   80.6983   13.9976 N.pl3   1  UNL1       -0.3563
      9 C          63.1140   82.5384   12.1966 C.ar    1  UNL1        0.0709
     10 CL         63.0465   81.4837   11.1321 Cl      1  UNL1       -0.0810
     11 C          62.9740   83.9857   11.8284 C.ar    1  UNL1        0.0202
     12 C          63.0414   85.0404   12.8929 C.ar    1  UNL1        0.0882
     13 H          63.5978   80.4406   14.9379 H       1  UNL1        0.1424
     14 H          63.4173   80.0061   13.2989 H       1  UNL1        0.1424
     15 O          63.3164   85.7023   15.3901 O.3     1  UNL1       -0.4753
     16 C          62.6014   86.5874   17.7257 C.3     1  UNL1        0.0512
     17 C          62.6034   85.4986   16.6939 C.3     1  UNL1        0.2055
     18 C          63.4960   88.9826   12.9393 C.3     1  UNL1        0.1207
     19 C          63.9381   90.0469   13.8993 C.3     1  UNL1        0.1507
     20 C          64.9502   91.0685   13.4725 C.3     1  UNL1        0.1041
     21 N          65.3924   92.1328   14.4326 N.3     1  UNL1       -0.2647
     22 C          64.8225   92.1756   15.8194 C.3     1  UNL1        0.1049
     23 C          63.8104   91.1540   16.2463 C.3     1  UNL1        0.1595
     24 O          63.3682   90.0897   15.2862 O.3     1  UNL1       -0.3516
     25 C          66.4045   93.1544   14.0057 C.3     1  UNL1        0.0993
     26 C          66.6236   93.4292   12.5475 C.ar    1  UNL1       -0.0060
     27 C          66.2081   94.7461   11.9617 C.ar    1  UNL1       -0.0006
     28 C          66.4272   95.0209   10.5035 C.ar    1  UNL1        0.0294
     29 C          67.0619   93.9788    9.6310 C.ar    1  UNL1        0.1401
     30 F          67.2811   94.2536    8.1728 F       1  UNL1       -0.2042
     31 C          67.4774   92.6619   10.2168 C.ar    1  UNL1        0.0294
     32 C          67.2583   92.3871   11.6750 C.ar    1  UNL1       -0.0006
@<TRIPOS>BOND
     1    16    17    1
     2    17    15    1
     3    15     5    1
     4     5     6   ar
     5     6     7   ar
     6     7     8    1
     7     7     9   ar
     8     9    10    1
     9     9    11   ar
    10    11    12   ar
    11    12     1    1
    12     1     2    2
    13     1     3   am
    14     3    18    1
    15    18    19    1
    16    19    20    1
    17    20    21    1
    18    21    25    1
    19    25    26    1
    20    26    27   ar
    21    27    28   ar
    22    28    29   ar
    23    29    30    1
    24    29    31   ar
    25    31    32   ar
    26    21    22    1
    27    22    23    1
    28    23    24    1
    29    12     5   ar
    30    24    19    1
    31    32    26   ar
    32     8    13    1
    33     8    14    1
    34     3     4    1
@<TRIPOS>MOLECULE
*****
 32 34 0 0 0
SMALL
GASTEIGER

@<TRIPOS>ATOM
      1 C          62.6200   85.3624   11.0400 C.2     1  UNL1        0.2489
      2 O          62.8506   85.3399    9.5580 O.2     1  UNL1       -0.2700
      3 N          62.1405   86.6183   11.7055 N.am    1  UNL1       -0.2984
      4 H          61.9891   86.6330   12.6781 H       1  UNL1        0.1498
      5 C          63.2889   84.2514   13.2913 C.ar    1  UNL1        0.1441
      6 C          63.5377   83.0180   14.1078 C.ar    1  UNL1        0.0520
      7 C          63.3665   81.6621   13.4896 C.ar    1  UNL1        0.0553
      8 N          63.6154   80.4286   14.3061 N.pl3   1  UNL1       -0.3563
      9 C          62.9465   81.5396   12.0548 C.ar    1  UNL1        0.0709
     10 CL         62.7753   80.1837   11.4366 Cl      1  UNL1       -0.0810
     11 C          62.6976   82.7730   11.2383 C.ar    1  UNL1        0.0202
     12 C          62.8688   84.1289   11.8566 C.ar    1  UNL1        0.0882
     13 H          63.8910   80.5090   15.2478 H       1  UNL1        0.1424
     14 H          63.5030   79.5387   13.9004 H       1  UNL1        0.1424
     15 O          63.4600   85.6073   13.9096 O.3     1  UNL1       -0.4753
     16 C          63.4894   85.9521   16.4845 C.3     1  UNL1        0.0512
     17 C          64.2243   85.7560   15.1916 C.3     1  UNL1        0.2055
     18 C          61.8916   87.8517   10.8890 C.3     1  UNL1        0.1207
     19 C          62.5934   89.1323   11.2317 C.3     1  UNL1        0.1507
     20 C          63.0497   89.3843   12.6382 C.3     1  UNL1        0.1041
     21 N          63.7515   90.6649   12.9810 N.3     1  UNL1       -0.2647
     22 C          63.9970   91.6935   11.9173 C.3     1  UNL1        0.1049
     23 C          63.5408   91.4416   10.5107 C.3     1  UNL1        0.1595
     24 O          62.8389   90.1610   10.1679 O.3     1  UNL1       -0.3516
     25 C          64.2078   90.9168   14.3876 C.3     1  UNL1        0.0993
     26 C          65.5370   91.5644   14.6402 C.ar    1  UNL1       -0.0060
     27 C          65.7738   92.3181   15.9153 C.ar    1  UNL1       -0.0006
     28 C          67.1031   92.9657   16.1680 C.ar    1  UNL1        0.0294
     29 C          68.1955   92.8595   15.1455 C.ar    1  UNL1        0.1401
     30 F          69.5247   93.5071   15.3981 F       1  UNL1       -0.2042
     31 C          67.9587   92.1058   13.8704 C.ar    1  UNL1        0.0294
     32 C          66.6294   91.4582   13.6178 C.ar    1  UNL1       -0.0006
@<TRIPOS>BOND
     1    16    17    1
     2    17    15    1
     3    15     5    1
     4     5     6   ar
     5     6     7   ar
     6     7     8    1
     7     7     9   ar
     8     9    10    1
     9     9    11   ar
    10    11    12   ar
    11    12     1    1
    12     1     2    2
    13     1     3   am
    14     3    18    1
    15    18    19    1
    16    19    20    1
    17    20    21    1
    18    21    25    1
    19    25    26    1
    20    26    27   ar
    21    27    28   ar
    22    28    29   ar
    23    29    30    1
    24    29    31   ar
    25    31    32   ar
    26    21    22    1
    27    22    23    1
    28    23    24    1
    29    12     5   ar
    30    24    19    1
    31    32    26   ar
    32     8    13    1
    33     8    14    1
    34     3     4    1
@<TRIPOS>MOLECULE
*****
 32 34 0 0 0
SMALL
GASTEIGER

@<TRIPOS>ATOM
      1 C          61.5753   89.1717   11.5539 C.2     1  UNL1        0.2489
      2 O          60.7305   89.7469   12.6518 O.2     1  UNL1       -0.2700
      3 N          63.0710   89.2105   11.6598 N.am    1  UNL1       -0.2984
      4 H          63.6255   88.8329   10.9392 H       1  UNL1        0.1498
      5 C          60.6977   87.0760   10.2937 C.ar    1  UNL1        0.1441
      6 C          60.0468   86.4621    9.0898 C.ar    1  UNL1        0.0520
      7 C          59.6225   87.3298    7.9422 C.ar    1  UNL1        0.0553
      8 N          58.9715   86.7158    6.7383 N.pl3   1  UNL1       -0.3563
      9 C          59.8491   88.8115    7.9985 C.ar    1  UNL1        0.0709
     10 CL         59.4248   89.6792    6.8509 Cl      1  UNL1       -0.0810
     11 C          60.5000   89.4254    9.2024 C.ar    1  UNL1        0.0202
     12 C          60.9243   88.5577   10.3500 C.ar    1  UNL1        0.0882
     13 H          58.8228   85.7433    6.7014 H       1  UNL1        0.1424
     14 H          58.6931   87.2853    5.9851 H       1  UNL1        0.1424
     15 O          61.1220   86.2083   11.4413 O.3     1  UNL1       -0.4753
     16 C          62.9356   84.6732   10.3904 C.3     1  UNL1        0.0512
     17 C          62.5025   85.6223   11.4682 C.3     1  UNL1        0.2055
     18 C          63.7220   89.8245   12.8636 C.3     1  UNL1        0.1207
     19 C          63.5565   89.1885   14.2120 C.3     1  UNL1        0.1507
     20 C          64.0346   87.7857   14.4434 C.3     1  UNL1        0.1041
     21 N          63.8691   87.1498   15.7918 N.3     1  UNL1       -0.2647
     22 C          63.2254   87.9166   16.9088 C.3     1  UNL1        0.1049
     23 C          62.7472   89.3194   16.6774 C.3     1  UNL1        0.1595
     24 O          62.9128   89.9554   15.3290 O.3     1  UNL1       -0.3516
     25 C          64.3472   85.7469   16.0232 C.3     1  UNL1        0.0993
     26 C          63.8804   84.6381   15.1274 C.ar    1  UNL1       -0.0060
     27 C          64.7869   84.1067   14.0568 C.ar    1  UNL1       -0.0006
     28 C          64.3201   82.9979   13.1610 C.ar    1  UNL1        0.0294
     29 C          62.9467   82.4204   13.3356 C.ar    1  UNL1        0.1401
     30 F          62.4799   81.3116   12.4398 F       1  UNL1       -0.2042
     31 C          62.0403   82.9518   14.4061 C.ar    1  UNL1        0.0294
     32 C          62.5071   84.0606   15.3020 C.ar    1  UNL1       -0.0006
@<TRIPOS>BOND
     1    16    17    1
     2    17    15    1
     3    15     5    1
     4     5     6   ar
     5     6     7   ar
     6     7     8    1
     7     7     9   ar
     8     9    10    1
     9     9    11   ar
    10    11    12   ar
    11    12     1    1
    12     1     2    2
    13     1     3   am
    14     3    18    1
    15    18    19    1
    16    19    20    1
    17    20    21    1
    18    21    25    1
    19    25    26    1
    20    26    27   ar
    21    27    28   ar
    22    28    29   ar
    23    29    30    1
    24    29    31   ar
    25    31    32   ar
    26    21    22    1
    27    22    23    1
    28    23    24    1
    29    12     5   ar
    30    24    19    1
    31    32    26   ar
    32     8    13    1
    33     8    14    1
    34     3     4    1
@<TRIPOS>MOLECULE
*****
 32 34 0 0 0
SMALL
GASTEIGER

@<TRIPOS>ATOM
      1 C          62.6036   86.7753   11.9299 C.2     1  UNL1        0.2489
      2 O          62.9457   85.4902   12.6237 O.2     1  UNL1       -0.2700
      3 N          63.1254   88.0770   12.4624 N.am    1  UNL1       -0.2984
      4 H          62.9009   88.9205   12.0070 H       1  UNL1        0.1498
      5 C          60.4637   87.5465   10.6746 C.ar    1  UNL1        0.1441
      6 C          59.6000   87.5300    9.4483 C.ar    1  UNL1        0.0520
      7 C          60.0125   86.7258    8.2512 C.ar    1  UNL1        0.0553
      8 N          59.1487   86.7093    7.0249 N.pl3   1  UNL1       -0.3563
      9 C          61.2887   85.9382    8.2803 C.ar    1  UNL1        0.0709
     10 CL         61.7012   85.1340    7.0831 Cl      1  UNL1       -0.0810
     11 C          62.1524   85.9547    9.5065 C.ar    1  UNL1        0.0202
     12 C          61.7399   86.7588   10.7036 C.ar    1  UNL1        0.0882
     13 H          58.3111   87.2263    7.0058 H       1  UNL1        0.1424
     14 H          59.4194   86.1815    6.2391 H       1  UNL1        0.1424
     15 O          60.0512   88.3506   11.8717 O.3     1  UNL1       -0.4753
     16 C          60.9260   90.6490   11.0338 C.3     1  UNL1        0.0512
     17 C          59.8926   89.8378   11.7578 C.3     1  UNL1        0.2055
     18 C          63.9891   88.0935   13.6886 C.3     1  UNL1        0.1207
     19 C          64.1503   89.3604   14.4754 C.3     1  UNL1        0.1507
     20 C          65.0606   90.4428   13.9758 C.3     1  UNL1        0.1041
     21 N          65.2219   91.7097   14.7626 N.3     1  UNL1       -0.2647
     22 C          64.4728   91.8941   16.0490 C.3     1  UNL1        0.1049
     23 C          63.5624   90.8116   16.5486 C.3     1  UNL1        0.1595
     24 O          63.4012   89.5448   15.7618 O.3     1  UNL1       -0.3516
     25 C          66.1322   92.7921   14.2629 C.3     1  UNL1        0.0993
     26 C          66.6088   92.7742   12.8408 C.ar    1  UNL1       -0.0060
     27 C          67.8220   91.9752   12.4664 C.ar    1  UNL1       -0.0006
     28 C          68.2986   91.9572   11.0443 C.ar    1  UNL1        0.0294
     29 C          67.5621   92.7382    9.9965 C.ar    1  UNL1        0.1401
     30 F          68.0387   92.7202    8.5743 F       1  UNL1       -0.2042
     31 C          66.3490   93.5371   10.3709 C.ar    1  UNL1        0.0294
     32 C          65.8724   93.5551   11.7931 C.ar    1  UNL1       -0.0006
@<TRIPOS>BOND
     1    16    17    1
     2    17    15    1
     3    15     5    1
     4     5     6   ar
     5     6     7   ar
     6     7     8    1
     7     7     9   ar
     8     9    10    1
     9     9    11   ar
    10    11    12   ar
    11    12     1    1
    12     1     2    2
    13     1     3   am
    14     3    18    1
    15    18    19    1
    16    19    20    1
    17    20    21    1
    18    21    25    1
    19    25    26    1
    20    26    27   ar
    21    27    28   ar
    22    28    29   ar
    23    29    30    1
    24    29    31   ar
    25    31    32   ar
    26    21    22    1
    27    22    23    1
    28    23    24    1
    29    12     5   ar
    30    24    19    1
    31    32    26   ar
    32     8    13    1
    33     8    14    1
    34     3     4    1
@<TRIPOS>MOLECULE
*****
 32 34 0 0 0
SMALL
GASTEIGER

@<TRIPOS>ATOM
      1 C          62.6544   84.7181   10.4621 C.2     1  UNL1        0.2489
      2 O          63.5505   84.7945    9.2616 O.2     1  UNL1       -0.2700
      3 N          61.5868   85.7514   10.6681 N.am    1  UNL1       -0.2984
      4 H          60.9987   85.7012   11.4560 H       1  UNL1        0.1498
      5 C          63.0822   83.9272   12.8996 C.ar    1  UNL1        0.1441
      6 C          63.2537   82.8173   13.8940 C.ar    1  UNL1        0.0520
      7 C          63.1688   81.3885   13.4453 C.ar    1  UNL1        0.0553
      8 N          63.3402   80.2787   14.4398 N.pl3   1  UNL1       -0.3563
      9 C          62.9124   81.0696   12.0022 C.ar    1  UNL1        0.0709
     10 CL         62.8275   79.6408   11.5535 Cl      1  UNL1       -0.0810
     11 C          62.7410   82.1794   11.0078 C.ar    1  UNL1        0.0202
     12 C          62.8259   83.6082   11.4565 C.ar    1  UNL1        0.0882
     13 H          63.5085   80.4880   15.3869 H       1  UNL1        0.1424
     14 H          63.2845   79.3409   14.1453 H       1  UNL1        0.1424
     15 O          63.1672   85.3560   13.3483 O.3     1  UNL1       -0.4753
     16 C          64.4603   87.1462   14.7167 C.3     1  UNL1        0.0512
     17 C          64.0260   85.7238   14.5217 C.3     1  UNL1        0.2055
     18 C          61.4153   86.8612    9.6737 C.3     1  UNL1        0.1207
     19 C          61.2597   88.2757   10.1479 C.3     1  UNL1        0.1507
     20 C          62.4430   89.1974   10.1594 C.3     1  UNL1        0.1041
     21 N          62.2874   90.6120   10.6336 N.3     1  UNL1       -0.2647
     22 C          60.9484   91.1048   11.0964 C.3     1  UNL1        0.1049
     23 C          59.7650   90.1831   11.0850 C.3     1  UNL1        0.1595
     24 O          59.9206   88.7685   10.6107 O.3     1  UNL1       -0.3516
     25 C          63.4708   91.5337   10.6450 C.3     1  UNL1        0.0993
     26 C          64.3827   91.5687   11.8355 C.ar    1  UNL1       -0.0060
     27 C          64.1151   90.6770   13.0117 C.ar    1  UNL1       -0.0006
     28 C          65.0269   90.7120   14.2022 C.ar    1  UNL1        0.0294
     29 C          66.2064   91.6387   14.2164 C.ar    1  UNL1        0.1401
     30 F          67.1183   91.6737   15.4069 F       1  UNL1       -0.2042
     31 C          66.4740   92.5303   13.0403 C.ar    1  UNL1        0.0294
     32 C          65.5621   92.4953   11.8498 C.ar    1  UNL1       -0.0006
@<TRIPOS>BOND
     1    16    17    1
     2    17    15    1
     3    15     5    1
     4     5     6   ar
     5     6     7   ar
     6     7     8    1
     7     7     9   ar
     8     9    10    1
     9     9    11   ar
    10    11    12   ar
    11    12     1    1
    12     1     2    2
    13     1     3   am
    14     3    18    1
    15    18    19    1
    16    19    20    1
    17    20    21    1
    18    21    25    1
    19    25    26    1
    20    26    27   ar
    21    27    28   ar
    22    28    29   ar
    23    29    30    1
    24    29    31   ar
    25    31    32   ar
    26    21    22    1
    27    22    23    1
    28    23    24    1
    29    12     5   ar
    30    24    19    1
    31    32    26   ar
    32     8    13    1
    33     8    14    1
    34     3     4    1
@<TRIPOS>MOLECULE
*****
 32 34 0 0 0
SMALL
GASTEIGER

@<TRIPOS>ATOM
      1 C          63.0718   84.1218   13.8953 C.2     1  UNL1        0.2489
      2 O          61.9207   84.5157   14.7726 O.2     1  UNL1       -0.2700
      3 N          64.2989   84.9824   13.8367 N.am    1  UNL1       -0.2984
      4 H          65.0545   84.7239   13.2609 H       1  UNL1        0.1498
      5 C          63.2950   82.9113   11.6073 C.ar    1  UNL1        0.1441
      6 C          63.2190   81.6568   10.7886 C.ar    1  UNL1        0.0520
      7 C          62.8438   80.3582   11.4390 C.ar    1  UNL1        0.0553
      8 N          62.7678   79.1037   10.6202 N.pl3   1  UNL1       -0.3563
      9 C          62.5446   80.3142   12.9082 C.ar    1  UNL1        0.0709
     10 CL         62.1694   79.0157   13.5586 Cl      1  UNL1       -0.0810
     11 C          62.6206   81.5687   13.7269 C.ar    1  UNL1        0.0202
     12 C          62.9958   82.8673   13.0765 C.ar    1  UNL1        0.0882
     13 H          62.9642   79.1326    9.6559 H       1  UNL1        0.1424
     14 H          62.5215   78.2514   11.0471 H       1  UNL1        0.1424
     15 O          63.6702   84.2098   10.9569 O.3     1  UNL1       -0.4753
     16 C          62.7994   85.4648    8.8554 C.3     1  UNL1        0.0512
     17 C          62.6199   85.0423   10.2834 C.3     1  UNL1        0.2055
     18 C          64.3750   86.2369   14.6555 C.3     1  UNL1        0.1207
     19 C          64.0158   87.5570   14.0403 C.3     1  UNL1        0.1507
     20 C          64.3320   88.8324   14.7637 C.3     1  UNL1        0.1041
     21 N          63.9728   90.1524   14.1485 N.3     1  UNL1       -0.2647
     22 C          63.2975   90.1971   12.8099 C.3     1  UNL1        0.1049
     23 C          62.9812   88.9217   12.0864 C.3     1  UNL1        0.1595
     24 O          63.3404   87.6016   12.7016 O.3     1  UNL1       -0.3516
     25 C          64.2890   91.4279   14.8720 C.3     1  UNL1        0.0993
     26 C          65.7041   91.9208   14.9394 C.ar    1  UNL1       -0.0060
     27 C          66.1953   92.6248   16.1696 C.ar    1  UNL1       -0.0006
     28 C          67.6104   93.1177   16.2370 C.ar    1  UNL1        0.0294
     29 C          68.5343   92.9068   15.0742 C.ar    1  UNL1        0.1401
     30 F          69.9494   93.3997   15.1417 F       1  UNL1       -0.2042
     31 C          68.0431   92.2029   13.8441 C.ar    1  UNL1        0.0294
     32 C          66.6280   91.7099   13.7767 C.ar    1  UNL1       -0.0006
@<TRIPOS>BOND
     1    16    17    1
     2    17    15    1
     3    15     5    1
     4     5     6   ar
     5     6     7   ar
     6     7     8    1
     7     7     9   ar
     8     9    10    1
     9     9    11   ar
    10    11    12   ar
    11    12     1    1
    12     1     2    2
    13     1     3   am
    14     3    18    1
    15    18    19    1
    16    19    20    1
    17    20    21    1
    18    21    25    1
    19    25    26    1
    20    26    27   ar
    21    27    28   ar
    22    28    29   ar
    23    29    30    1
    24    29    31   ar
    25    31    32   ar
    26    21    22    1
    27    22    23    1
    28    23    24    1
    29    12     5   ar
    30    24    19    1
    31    32    26   ar
    32     8    13    1
    33     8    14    1
    34     3     4    1
@<TRIPOS>MOLECULE
*****
 32 34 0 0 0
SMALL
GASTEIGER

@<TRIPOS>ATOM
      1 C          62.9623   87.7006   12.3730 C.2     1  UNL1        0.2489
      2 O          63.5870   86.5478   13.1016 O.2     1  UNL1       -0.2700
      3 N          63.1939   89.1036   12.8504 N.am    1  UNL1       -0.2984
      4 H          62.7840   89.8603   12.3723 H       1  UNL1        0.1498
      5 C          60.7795   88.1376   11.0335 C.ar    1  UNL1        0.1441
      6 C          59.9233   87.8875    9.8276 C.ar    1  UNL1        0.0520
      7 C          60.3938   86.9501    8.7552 C.ar    1  UNL1        0.0553
      8 N          59.5375   86.7000    7.5492 N.pl3   1  UNL1       -0.3563
      9 C          61.7204   86.2629    8.8887 C.ar    1  UNL1        0.0709
     10 CL         62.1908   85.3256    7.8163 Cl      1  UNL1       -0.0810
     11 C          62.5765   86.5131   10.0946 C.ar    1  UNL1        0.0202
     12 C          62.1061   87.4504   11.1670 C.ar    1  UNL1        0.0882
     13 H          58.6668   87.1510    7.4615 H       1  UNL1        0.1424
     14 H          59.8463   86.0848    6.8453 H       1  UNL1        0.1424
     15 O          60.3091   89.0750   12.1059 O.3     1  UNL1       -0.4753
     16 C          58.8462   91.1549   11.5734 C.3     1  UNL1        0.0512
     17 C          58.9596   89.7209   11.9984 C.3     1  UNL1        0.2055
     18 C          64.0501   89.3538   14.0564 C.3     1  UNL1        0.1207
     19 C          64.7516   90.6698   14.2182 C.3     1  UNL1        0.1507
     20 C          64.9428   91.5685   13.0327 C.3     1  UNL1        0.1041
     21 N          65.6443   92.8845   13.1945 N.3     1  UNL1       -0.2647
     22 C          66.1545   93.3017   14.5419 C.3     1  UNL1        0.1049
     23 C          65.9633   92.4029   15.7276 C.3     1  UNL1        0.1595
     24 O          65.2618   91.0869   15.5657 O.3     1  UNL1       -0.3516
     25 C          65.8355   93.7833   12.0089 C.3     1  UNL1        0.0993
     26 C          66.7549   93.3727   10.8971 C.ar    1  UNL1       -0.0060
     27 C          66.8894   94.2359    9.6776 C.ar    1  UNL1       -0.0006
     28 C          67.8088   93.8253    8.5658 C.ar    1  UNL1        0.0294
     29 C          68.5937   92.5515    8.6734 C.ar    1  UNL1        0.1401
     30 F          69.5131   92.1409    7.5616 F       1  UNL1       -0.2042
     31 C          68.4592   91.6884    9.8928 C.ar    1  UNL1        0.0294
     32 C          67.5398   92.0990   11.0046 C.ar    1  UNL1       -0.0006
@<TRIPOS>BOND
     1    16    17    1
     2    17    15    1
     3    15     5    1
     4     5     6   ar
     5     6     7   ar
     6     7     8    1
     7     7     9   ar
     8     9    10    1
     9     9    11   ar
    10    11    12   ar
    11    12     1    1
    12     1     2    2
    13     1     3   am
    14     3    18    1
    15    18    19    1
    16    19    20    1
    17    20    21    1
    18    21    25    1
    19    25    26    1
    20    26    27   ar
    21    27    28   ar
    22    28    29   ar
    23    29    30    1
    24    29    31   ar
    25    31    32   ar
    26    21    22    1
    27    22    23    1
    28    23    24    1
    29    12     5   ar
    30    24    19    1
    31    32    26   ar
    32     8    13    1
    33     8    14    1
    34     3     4    1
