@<TRIPOS>MOLECULE
*****
 39 42 0 0 0
SMALL
GASTEIGER

@<TRIPOS>ATOM
      1 N          62.8407   90.3210   11.8793 N.am    1  UNL1       -0.2781
      2 C          61.6261   90.8546   11.1794 C.3     1  UNL1        0.0957
      3 C          60.7629   89.6894   10.7956 C.3     1  UNL1        0.0504
      4 C          61.4441   88.4356   11.2582 C.3     1  UNL1        0.1495
      5 C          62.7282   88.8260   11.9280 C.2     1  UNL1        0.2435
      6 O          63.7250   87.8863   12.5392 O.2     1  UNL1       -0.2731
      7 C          64.4998   90.8521   13.8068 C.3     1  UNL1        0.0910
      8 C          65.6287   91.6699   14.3608 C.3     1  UNL1        0.0369
      9 C          66.2274   92.7742   13.5411 C.3     1  UNL1        0.0557
     10 C          65.6973   93.0608   12.1675 C.3     1  UNL1        0.0175
     11 C          64.5684   92.2430   11.6135 C.3     1  UNL1        0.0229
     12 C          63.9696   91.1387   12.4332 C.3     1  UNL1        0.0933
     13 C          62.7921   88.9270   16.8280 C.3     1  UNL1        0.0946
     14 C          63.3908   90.0313   16.0083 C.2     1  UNL1        0.2230
     15 O          63.4793   91.4192   16.5704 O.2     1  UNL1       -0.2751
     16 N          63.9010   89.7478   14.6265 N.am    1  UNL1       -0.3043
     17 H          63.8429   88.8369   14.2576 H       1  UNL1        0.1494
     18 N          67.3564   93.5920   14.0949 N.3     1  UNL1       -0.3006
     19 H          66.9351   94.3725   14.5987 H       1  UNL1        0.1231
     20 C          68.3522   92.9638   15.0243 C.3     1  UNL1        0.0420
     21 C          67.9249   93.9005   16.1152 C.3     1  UNL1        0.0158
     22 C          68.7794   92.0272   13.9333 C.3     1  UNL1        0.0158
     23 C          69.3480   92.3356   15.9536 C.3     1  UNL1        0.0158
     24 N          60.9312   87.0371   11.0820 N.pl3   1  UNL1       -0.3122
     25 H          60.1477   86.7319   11.5942 H       1  UNL1        0.1486
     26 C          61.6120   86.1035   10.1255 C.ar    1  UNL1        0.1319
     27 N          61.3739   86.2361    8.6505 N.ar    1  UNL1       -0.2092
     28 C          62.0547   85.3025    7.6940 C.ar    1  UNL1        0.2000
     29 N          62.9737   84.2364    8.2125 N.ar    1  UNL1       -0.2239
     30 C          63.2118   84.1038    9.6875 C.ar    1  UNL1        0.0857
     31 C          64.1308   83.0377   10.2060 C.ar    1  UNL1        0.0192
     32 C          64.3690   82.9051   11.6810 C.ar    1  UNL1        0.0054
     33 C          63.6881   83.8387   12.6376 C.ar    1  UNL1        0.0716
     34 C          62.7691   84.9048   12.1191 C.ar    1  UNL1        0.0081
     35 C          62.5310   85.0374   10.6440 C.ar    1  UNL1        0.0491
     36 C          63.9263   83.7062   14.1126 C.3     1  UNL1        0.4186
     37 F          64.1644   83.5736   15.5877 F       1  UNL1       -0.1659
     38 F          65.3255   84.2158   13.9325 F       1  UNL1       -0.1659
     39 F          62.5271   83.1965   14.2927 F       1  UNL1       -0.1659
@<TRIPOS>BOND
     1    13    14    1
     2    14    15    2
     3    14    16   am
     4     7    16    1
     5     7     8    1
     6     8     9    1
     7     9    18    1
     8    18    20    1
     9    20    21    1
    10    20    22    1
    11    20    23    1
    12     9    10    1
    13    10    11    1
    14    11    12    1
    15    12     1    1
    16     1     2    1
    17     2     3    1
    18     3     4    1
    19     4    24    1
    20    24    26    1
    21    26    27   ar
    22    27    28   ar
    23    28    29   ar
    24    29    30   ar
    25    30    31   ar
    26    31    32   ar
    27    32    33   ar
    28    33    36    1
    29    36    37    1
    30    36    38    1
    31    36    39    1
    32    33    34   ar
    33    34    35   ar
    34     4     5    1
    35     5     6    2
    36    12     7    1
    37     5     1   am
    38    35    26   ar
    39    35    30   ar
    40    16    17    1
    41    18    19    1
    42    24    25    1
@<TRIPOS>MOLECULE
*****
 39 42 0 0 0
SMALL
GASTEIGER

@<TRIPOS>ATOM
      1 N          61.9812   89.9205   11.4024 N.am    1  UNL1       -0.2781
      2 C          60.6884   90.0412   12.1534 C.3     1  UNL1        0.0957
      3 C          59.8030   88.9040   11.7377 C.3     1  UNL1        0.0504
      4 C          60.5485   88.0804   10.7298 C.3     1  UNL1        0.1495
      5 C          61.8948   88.7087   10.5226 C.2     1  UNL1        0.2435
      6 O          62.9665   88.2123    9.5979 O.2     1  UNL1       -0.2731
      7 C          64.0429   90.7952   12.7193 C.3     1  UNL1        0.0910
      8 C          65.2162   91.7233   12.8289 C.3     1  UNL1        0.0369
      9 C          65.5010   92.7049   11.7310 C.3     1  UNL1        0.0557
     10 C          64.6126   92.7583   10.5235 C.3     1  UNL1        0.0175
     11 C          63.4393   91.8302   10.4140 C.3     1  UNL1        0.0229
     12 C          63.1545   90.8486   11.5119 C.3     1  UNL1        0.0933
     13 C          63.2753   89.3160   16.3210 C.3     1  UNL1        0.0946
     14 C          63.5601   90.2975   15.2232 C.2     1  UNL1        0.2230
     15 O          63.6470   91.7630   15.5312 O.2     1  UNL1       -0.2751
     16 N          63.7581   89.8136   13.8172 N.am    1  UNL1       -0.3043
     17 H          63.7011   88.8518   13.6150 H       1  UNL1        0.1494
     18 N          66.6743   93.6331   11.8404 N.3     1  UNL1       -0.3006
     19 H          67.5037   93.0483   11.9431 H       1  UNL1        0.1231
     20 C          66.9653   94.6075   10.7377 C.3     1  UNL1        0.0420
     21 C          66.2333   95.6784   11.4909 C.3     1  UNL1        0.0158
     22 C          67.6972   93.5365    9.9845 C.3     1  UNL1        0.0158
     23 C          67.2562   95.5818    9.6351 C.3     1  UNL1        0.0158
     24 N          60.0376   86.8455   10.0487 N.pl3   1  UNL1       -0.3122
     25 H          59.0891   86.5948   10.1307 H       1  UNL1        0.1486
     26 C          60.9719   85.9924    9.2428 C.ar    1  UNL1        0.1319
     27 N          60.8648   85.9696    7.7469 N.ar    1  UNL1       -0.2092
     28 C          61.7991   85.1166    6.9411 C.ar    1  UNL1        0.2000
     29 N          62.8405   84.2863    7.6312 N.ar    1  UNL1       -0.2239
     30 C          62.9476   84.3092    9.1272 C.ar    1  UNL1        0.0857
     31 C          63.9890   83.4790    9.8173 C.ar    1  UNL1        0.0192
     32 C          64.0960   83.5018   11.3133 C.ar    1  UNL1        0.0054
     33 C          63.1617   84.3549   12.1192 C.ar    1  UNL1        0.0716
     34 C          62.1204   85.1851   11.4290 C.ar    1  UNL1        0.0081
     35 C          62.0133   85.1622    9.9330 C.ar    1  UNL1        0.0491
     36 C          63.2688   84.3777   13.6151 C.3     1  UNL1        0.4186
     37 F          63.3759   84.4005   15.1112 F       1  UNL1       -0.1659
     38 F          63.7554   85.7954   13.5587 F       1  UNL1       -0.1659
     39 F          62.7822   82.9600   13.6716 F       1  UNL1       -0.1659
@<TRIPOS>BOND
     1    13    14    1
     2    14    15    2
     3    14    16   am
     4     7    16    1
     5     7     8    1
     6     8     9    1
     7     9    18    1
     8    18    20    1
     9    20    21    1
    10    20    22    1
    11    20    23    1
    12     9    10    1
    13    10    11    1
    14    11    12    1
    15    12     1    1
    16     1     2    1
    17     2     3    1
    18     3     4    1
    19     4    24    1
    20    24    26    1
    21    26    27   ar
    22    27    28   ar
    23    28    29   ar
    24    29    30   ar
    25    30    31   ar
    26    31    32   ar
    27    32    33   ar
    28    33    36    1
    29    36    37    1
    30    36    38    1
    31    36    39    1
    32    33    34   ar
    33    34    35   ar
    34     4     5    1
    35     5     6    2
    36    12     7    1
    37     5     1   am
    38    35    26   ar
    39    35    30   ar
    40    16    17    1
    41    18    19    1
    42    24    25    1
@<TRIPOS>MOLECULE
*****
 39 42 0 0 0
SMALL
GASTEIGER

@<TRIPOS>ATOM
      1 N          62.5313   89.8919   10.9939 N.am    1  UNL1       -0.2781
      2 C          61.3119   89.9567   10.1228 C.3     1  UNL1        0.0957
      3 C          60.6243   88.6252   10.1883 C.3     1  UNL1        0.0504
      4 C          61.4186   87.7375   11.0999 C.3     1  UNL1        0.1495
      5 C          62.5973   88.5204   11.5977 C.2     1  UNL1        0.2435
      6 O          63.6560   88.0197   12.5349 O.2     1  UNL1       -0.2731
      7 C          63.8643   91.4192   12.6189 C.3     1  UNL1        0.0910
      8 C          64.8455   92.5308   12.8463 C.3     1  UNL1        0.0369
      9 C          65.4750   93.2266   11.6759 C.3     1  UNL1        0.0557
     10 C          65.1232   92.8108   10.2783 C.3     1  UNL1        0.0175
     11 C          64.1420   91.6993   10.0509 C.3     1  UNL1        0.0229
     12 C          63.5125   91.0035   11.2212 C.3     1  UNL1        0.0933
     13 C          63.4608   89.5410   16.0916 C.3     1  UNL1        0.0946
     14 C          64.0903   90.2368   14.9213 C.2     1  UNL1        0.2230
     15 O          65.5751   90.4460   14.8830 O.2     1  UNL1       -0.2751
     16 N          63.2349   90.7235   13.7892 N.am    1  UNL1       -0.3043
     17 H          62.2603   90.5862   13.8143 H       1  UNL1        0.1494
     18 N          66.4562   94.3381   11.9032 N.3     1  UNL1       -0.3006
     19 H          67.3400   93.9017   12.1654 H       1  UNL1        0.1231
     20 C          66.7621   95.3060   10.7988 C.3     1  UNL1        0.0420
     21 C          65.9486   96.3569   11.4945 C.3     1  UNL1        0.0158
     22 C          67.5756   94.2552   10.1032 C.3     1  UNL1        0.0158
     23 C          67.0680   96.2739    9.6945 C.3     1  UNL1        0.0158
     24 N          61.0918   86.3165   11.4517 N.pl3   1  UNL1       -0.3122
     25 H          60.1885   86.0823   11.7655 H       1  UNL1        0.1486
     26 C          62.1413   85.2522   11.3256 C.ar    1  UNL1        0.1319
     27 N          62.5008   84.7098    9.9741 N.ar    1  UNL1       -0.2092
     28 C          63.5502   83.6455    9.8480 C.ar    1  UNL1        0.2000
     29 N          64.2402   83.1237   11.0734 N.ar    1  UNL1       -0.2239
     30 C          63.8808   83.6661   12.4249 C.ar    1  UNL1        0.0857
     31 C          64.5708   83.1442   13.6503 C.ar    1  UNL1        0.0192
     32 C          64.2113   83.6866   15.0017 C.ar    1  UNL1        0.0054
     33 C          63.1618   84.7509   15.1279 C.ar    1  UNL1        0.0716
     34 C          62.4718   85.2728   13.9025 C.ar    1  UNL1        0.0081
     35 C          62.8313   84.7303   12.5510 C.ar    1  UNL1        0.0491
     36 C          62.8023   85.2933   16.4794 C.3     1  UNL1        0.4186
     37 F          62.4428   85.8357   17.8309 F       1  UNL1       -0.1659
     38 F          64.2548   85.5267   16.7720 F       1  UNL1       -0.1659
     39 F          61.3498   85.0599   16.1867 F       1  UNL1       -0.1659
@<TRIPOS>BOND
     1    13    14    1
     2    14    15    2
     3    14    16   am
     4     7    16    1
     5     7     8    1
     6     8     9    1
     7     9    18    1
     8    18    20    1
     9    20    21    1
    10    20    22    1
    11    20    23    1
    12     9    10    1
    13    10    11    1
    14    11    12    1
    15    12     1    1
    16     1     2    1
    17     2     3    1
    18     3     4    1
    19     4    24    1
    20    24    26    1
    21    26    27   ar
    22    27    28   ar
    23    28    29   ar
    24    29    30   ar
    25    30    31   ar
    26    31    32   ar
    27    32    33   ar
    28    33    36    1
    29    36    37    1
    30    36    38    1
    31    36    39    1
    32    33    34   ar
    33    34    35   ar
    34     4     5    1
    35     5     6    2
    36    12     7    1
    37     5     1   am
    38    35    26   ar
    39    35    30   ar
    40    16    17    1
    41    18    19    1
    42    24    25    1
@<TRIPOS>MOLECULE
*****
 39 42 0 0 0
SMALL
GASTEIGER

@<TRIPOS>ATOM
      1 N          63.7395   90.5648   12.3366 N.am    1  UNL1       -0.2781
      2 C          63.3357   91.0439   10.9738 C.3     1  UNL1        0.0957
      3 C          62.4680   89.9910   10.3506 C.3     1  UNL1        0.0504
      4 C          62.3355   88.8611   11.3281 C.3     1  UNL1        0.1495
      5 C          63.1214   89.2157   12.5556 C.2     1  UNL1        0.2435
      6 O          63.2641   88.3698   13.7861 O.2     1  UNL1       -0.2731
      7 C          65.7303   92.1659   12.8090 C.3     1  UNL1        0.0910
      8 C          66.5996   92.9059   13.7821 C.3     1  UNL1        0.0369
      9 C          66.3475   92.7845   15.2557 C.3     1  UNL1        0.0557
     10 C          65.2260   91.9233   15.7563 C.3     1  UNL1        0.0175
     11 C          64.3567   91.1834   14.7833 C.3     1  UNL1        0.0229
     12 C          64.6088   91.3047   13.3097 C.3     1  UNL1        0.0933
     13 C          67.6362   92.3365    9.3322 C.3     1  UNL1        0.0946
     14 C          67.3841   92.2152   10.8059 C.2     1  UNL1        0.2230
     15 O          68.5335   92.0218   11.7500 O.2     1  UNL1       -0.2751
     16 N          65.9825   92.2872   11.3354 N.am    1  UNL1       -0.3043
     17 H          65.2281   92.4141   10.7157 H       1  UNL1        0.1494
     18 N          67.2167   93.5244   16.2289 N.3     1  UNL1       -0.3006
     19 H          66.9557   93.2023   17.1608 H       1  UNL1        0.1231
     20 C          68.7097   93.4144   16.1351 C.3     1  UNL1        0.0420
     21 C          68.8008   94.8858   15.8585 C.3     1  UNL1        0.0158
     22 C          68.6186   91.9429   16.4117 C.3     1  UNL1        0.0158
     23 C          70.2027   93.3043   16.0414 C.3     1  UNL1        0.0158
     24 N          61.5544   87.5983   11.1156 N.pl3   1  UNL1       -0.3122
     25 H          60.6788   87.4820   11.5505 H       1  UNL1        0.1486
     26 C          62.1073   86.5127   10.2405 C.ar    1  UNL1        0.1319
     27 N          61.9326   86.5868    8.7526 N.ar    1  UNL1       -0.2092
     28 C          62.4855   85.5012    7.8775 C.ar    1  UNL1        0.2000
     29 N          63.2131   84.3415    8.4904 N.ar    1  UNL1       -0.2239
     30 C          63.3878   84.2674    9.9783 C.ar    1  UNL1        0.0857
     31 C          64.1155   83.1077   10.5912 C.ar    1  UNL1        0.0192
     32 C          64.2902   83.0335   12.0791 C.ar    1  UNL1        0.0054
     33 C          63.7373   84.1192   12.9542 C.ar    1  UNL1        0.0716
     34 C          63.0097   85.2789   12.3413 C.ar    1  UNL1        0.0081
     35 C          62.8349   85.3530   10.8533 C.ar    1  UNL1        0.0491
     36 C          63.9120   84.0450   14.4421 C.3     1  UNL1        0.4186
     37 F          64.0868   83.9709   15.9301 F       1  UNL1       -0.1659
     38 F          62.5517   83.4263   14.5710 F       1  UNL1       -0.1659
     39 F          65.2723   84.6637   14.3132 F       1  UNL1       -0.1659
@<TRIPOS>BOND
     1    13    14    1
     2    14    15    2
     3    14    16   am
     4     7    16    1
     5     7     8    1
     6     8     9    1
     7     9    18    1
     8    18    20    1
     9    20    21    1
    10    20    22    1
    11    20    23    1
    12     9    10    1
    13    10    11    1
    14    11    12    1
    15    12     1    1
    16     1     2    1
    17     2     3    1
    18     3     4    1
    19     4    24    1
    20    24    26    1
    21    26    27   ar
    22    27    28   ar
    23    28    29   ar
    24    29    30   ar
    25    30    31   ar
    26    31    32   ar
    27    32    33   ar
    28    33    36    1
    29    36    37    1
    30    36    38    1
    31    36    39    1
    32    33    34   ar
    33    34    35   ar
    34     4     5    1
    35     5     6    2
    36    12     7    1
    37     5     1   am
    38    35    26   ar
    39    35    30   ar
    40    16    17    1
    41    18    19    1
    42    24    25    1
@<TRIPOS>MOLECULE
*****
 39 42 0 0 0
SMALL
GASTEIGER

@<TRIPOS>ATOM
      1 N          64.8756   91.0988   13.0865 N.am    1  UNL1       -0.2781
      2 C          65.3412   90.6194   14.4294 C.3     1  UNL1        0.0957
      3 C          64.6298   89.3347   14.7352 C.3     1  UNL1        0.0504
      4 C          63.7246   89.0201   13.5812 C.3     1  UNL1        0.1495
      5 C          63.8766   90.1103   12.5623 C.2     1  UNL1        0.2435
      6 O          63.1559   90.1969   11.2496 O.2     1  UNL1       -0.2731
      7 C          66.0905   93.3946   13.1478 C.3     1  UNL1        0.0910
      8 C          66.5443   94.6431   12.4513 C.3     1  UNL1        0.0369
      9 C          66.2371   94.8445   10.9970 C.3     1  UNL1        0.0557
     10 C          65.4761   93.7973   10.2392 C.3     1  UNL1        0.0175
     11 C          65.0223   92.5487   10.9357 C.3     1  UNL1        0.0229
     12 C          65.3295   92.3474   12.3900 C.3     1  UNL1        0.0933
     13 C          68.0499   92.4762   16.4745 C.3     1  UNL1        0.0946
     14 C          67.7428   92.6775   15.0202 C.2     1  UNL1        0.2230
     15 O          68.7807   92.3632   13.9839 O.2     1  UNL1       -0.2751
     16 N          66.3976   93.1932   14.6021 N.am    1  UNL1       -0.3043
     17 H          65.7164   93.3995   15.2823 H       1  UNL1        0.1494
     18 N          66.6909   96.0931   10.3004 N.3     1  UNL1       -0.3006
     19 H          67.6959   95.9997   10.1537 H       1  UNL1        0.1231
     20 C          66.0938   96.4734    8.9780 C.3     1  UNL1        0.0420
     21 C          64.8163   96.8558    9.6648 C.3     1  UNL1        0.0158
     22 C          67.3713   96.0910    8.2912 C.3     1  UNL1        0.0158
     23 C          65.4967   96.8537    7.6556 C.3     1  UNL1        0.0158
     24 N          62.8254   87.8250   13.4664 N.pl3   1  UNL1       -0.3122
     25 H          61.8568   87.9481   13.3405 H       1  UNL1        0.1486
     26 C          63.4020   86.4423   13.5435 C.ar    1  UNL1        0.1319
     27 N          64.0298   85.9615   14.8181 N.ar    1  UNL1       -0.2092
     28 C          64.6064   84.5789   14.8951 C.ar    1  UNL1        0.2000
     29 N          64.5552   83.6772   13.6975 N.ar    1  UNL1       -0.2239
     30 C          63.9274   84.1580   12.4229 C.ar    1  UNL1        0.0857
     31 C          63.8762   83.2563   11.2253 C.ar    1  UNL1        0.0192
     32 C          63.2484   83.7371    9.9507 C.ar    1  UNL1        0.0054
     33 C          62.6718   85.1197    9.8736 C.ar    1  UNL1        0.0716
     34 C          62.7230   86.0215   11.0712 C.ar    1  UNL1        0.0081
     35 C          63.3508   85.5406   12.3459 C.ar    1  UNL1        0.0491
     36 C          62.0440   85.6006    8.5991 C.3     1  UNL1        0.4186
     37 F          61.4162   86.0815    7.3244 F       1  UNL1       -0.1659
     38 F          63.1601   84.9774    7.8143 F       1  UNL1       -0.1659
     39 F          60.9279   86.2237    9.3838 F       1  UNL1       -0.1659
@<TRIPOS>BOND
     1    13    14    1
     2    14    15    2
     3    14    16   am
     4     7    16    1
     5     7     8    1
     6     8     9    1
     7     9    18    1
     8    18    20    1
     9    20    21    1
    10    20    22    1
    11    20    23    1
    12     9    10    1
    13    10    11    1
    14    11    12    1
    15    12     1    1
    16     1     2    1
    17     2     3    1
    18     3     4    1
    19     4    24    1
    20    24    26    1
    21    26    27   ar
    22    27    28   ar
    23    28    29   ar
    24    29    30   ar
    25    30    31   ar
    26    31    32   ar
    27    32    33   ar
    28    33    36    1
    29    36    37    1
    30    36    38    1
    31    36    39    1
    32    33    34   ar
    33    34    35   ar
    34     4     5    1
    35     5     6    2
    36    12     7    1
    37     5     1   am
    38    35    26   ar
    39    35    30   ar
    40    16    17    1
    41    18    19    1
    42    24    25    1
@<TRIPOS>MOLECULE
*****
 39 42 0 0 0
SMALL
GASTEIGER

@<TRIPOS>ATOM
      1 N          62.7267   87.5937   11.8434 N.am    1  UNL1       -0.2781
      2 C          62.0309   88.1836   10.6526 C.3     1  UNL1        0.0957
      3 C          62.0574   89.6768   10.7930 C.3     1  UNL1        0.0504
      4 C          62.7696   90.0098   12.0705 C.3     1  UNL1        0.1495
      5 C          63.1832   88.7224   12.7196 C.2     1  UNL1        0.2435
      6 O          63.9235   88.5872   14.0172 O.2     1  UNL1       -0.2731
      7 C          62.2485   85.1098   11.2503 C.3     1  UNL1        0.0910
      8 C          62.4521   83.6480   11.5179 C.3     1  UNL1        0.0369
      9 C          63.3375   83.2082   12.6460 C.3     1  UNL1        0.0557
     10 C          64.0193   84.2303   13.5065 C.3     1  UNL1        0.0175
     11 C          63.8157   85.6921   13.2390 C.3     1  UNL1        0.0229
     12 C          62.9303   86.1319   12.1109 C.3     1  UNL1        0.0933
     13 C          60.9996   85.9910    7.5879 C.3     1  UNL1        0.0946
     14 C          61.8850   85.5512    8.7160 C.2     1  UNL1        0.2230
     15 O          63.2923   85.1131    8.4378 O.2     1  UNL1       -0.2751
     16 N          61.3631   85.5496   10.1222 N.am    1  UNL1       -0.3043
     17 H          60.4394   85.8372   10.3048 H       1  UNL1        0.1494
     18 N          63.5412   81.7464   12.9136 N.3     1  UNL1       -0.3006
     19 H          64.2715   81.6758   13.6221 H       1  UNL1        0.1231
     20 C          62.3945   80.9039   13.3883 C.3     1  UNL1        0.0420
     21 C          62.6410   79.9373   12.2680 C.3     1  UNL1        0.0158
     22 C          62.1481   81.8704   14.5085 C.3     1  UNL1        0.0158
     23 C          61.2479   80.0613   13.8629 C.3     1  UNL1        0.0158
     24 N          63.0235   91.3881   12.6049 N.pl3   1  UNL1       -0.3122
     25 H          62.5289   92.1568   12.2392 H       1  UNL1        0.1486
     26 C          64.0311   91.5954   13.6967 C.ar    1  UNL1        0.1319
     27 N          63.6073   91.5154   15.1334 N.ar    1  UNL1       -0.2092
     28 C          64.6149   91.7226   16.2251 C.ar    1  UNL1        0.2000
     29 N          66.0461   92.0098   15.8801 N.ar    1  UNL1       -0.2239
     30 C          66.4699   92.0898   14.4435 C.ar    1  UNL1        0.0857
     31 C          67.9011   92.3771   14.0985 C.ar    1  UNL1        0.0192
     32 C          68.3248   92.4571   12.6619 C.ar    1  UNL1        0.0054
     33 C          67.3173   92.2499   11.5701 C.ar    1  UNL1        0.0716
     34 C          65.8860   91.9626   11.9150 C.ar    1  UNL1        0.0081
     35 C          65.4623   91.8826   13.3518 C.ar    1  UNL1        0.0491
     36 C          67.7410   92.3299   10.1334 C.3     1  UNL1        0.4186
     37 F          68.1647   92.4099    8.6967 F       1  UNL1       -0.1659
     38 F          66.4662   93.0454    9.7973 F       1  UNL1       -0.1659
     39 F          69.0157   91.6144   10.4695 F       1  UNL1       -0.1659
@<TRIPOS>BOND
     1    13    14    1
     2    14    15    2
     3    14    16   am
     4     7    16    1
     5     7     8    1
     6     8     9    1
     7     9    18    1
     8    18    20    1
     9    20    21    1
    10    20    22    1
    11    20    23    1
    12     9    10    1
    13    10    11    1
    14    11    12    1
    15    12     1    1
    16     1     2    1
    17     2     3    1
    18     3     4    1
    19     4    24    1
    20    24    26    1
    21    26    27   ar
    22    27    28   ar
    23    28    29   ar
    24    29    30   ar
    25    30    31   ar
    26    31    32   ar
    27    32    33   ar
    28    33    36    1
    29    36    37    1
    30    36    38    1
    31    36    39    1
    32    33    34   ar
    33    34    35   ar
    34     4     5    1
    35     5     6    2
    36    12     7    1
    37     5     1   am
    38    35    26   ar
    39    35    30   ar
    40    16    17    1
    41    18    19    1
    42    24    25    1
@<TRIPOS>MOLECULE
*****
 39 42 0 0 0
SMALL
GASTEIGER

@<TRIPOS>ATOM
      1 N          63.0153   88.6544   12.1533 N.am    1  UNL1       -0.2781
      2 C          61.8736   88.7711   11.1874 C.3     1  UNL1        0.0957
      3 C          61.3598   87.3898   10.9082 C.3     1  UNL1        0.0504
      4 C          62.1840   86.4194   11.7014 C.3     1  UNL1        0.1495
      5 C          63.2072   87.2010   12.4709 C.2     1  UNL1        0.2435
      6 O          64.2407   86.6296   13.3957 O.2     1  UNL1       -0.2731
      7 C          64.2528   89.7789   14.1419 C.3     1  UNL1        0.0910
      8 C          65.0608   90.9159   14.6933 C.3     1  UNL1        0.0369
      9 C          65.4395   92.0657   13.8075 C.3     1  UNL1        0.0557
     10 C          65.0102   92.0783   12.3703 C.3     1  UNL1        0.0175
     11 C          64.2021   90.9413   11.8189 C.3     1  UNL1        0.0229
     12 C          63.8234   89.7915   12.7047 C.3     1  UNL1        0.0933
     13 C          62.8773   87.7384   17.2555 C.3     1  UNL1        0.0946
     14 C          63.2560   88.8881   16.3697 C.2     1  UNL1        0.2230
     15 O          63.0166   90.2968   16.8259 O.2     1  UNL1       -0.2751
     16 N          63.8741   88.6291   15.0277 N.am    1  UNL1       -0.3043
     17 H          64.0312   87.7045   14.7283 H       1  UNL1        0.1494
     18 N          66.2476   93.2028   14.3588 N.3     1  UNL1       -0.3006
     19 H          65.6447   93.7029   15.0121 H       1  UNL1        0.1231
     20 C          67.5340   92.9286   15.0799 C.3     1  UNL1        0.0420
     21 C          66.8361   93.1124   16.3948 C.3     1  UNL1        0.0158
     22 C          68.2319   92.7448   13.7649 C.3     1  UNL1        0.0158
     23 C          68.8204   92.6543   15.8009 C.3     1  UNL1        0.0158
     24 N          62.0147   84.9291   11.7215 N.pl3   1  UNL1       -0.3122
     25 H          61.7774   84.4494   10.8952 H       1  UNL1        0.1486
     26 C          62.2070   84.1697   13.0007 C.ar    1  UNL1        0.1319
     27 N          62.1290   84.8852   14.3167 N.ar    1  UNL1       -0.2092
     28 C          62.3213   84.1258   15.5958 C.ar    1  UNL1        0.2000
     29 N          62.5916   82.6508   15.5590 N.ar    1  UNL1       -0.2239
     30 C          62.6697   81.9353   14.2430 C.ar    1  UNL1        0.0857
     31 C          62.9401   80.4603   14.2061 C.ar    1  UNL1        0.0192
     32 C          63.0181   79.7448   12.8901 C.ar    1  UNL1        0.0054
     33 C          62.8258   80.5042   11.6109 C.ar    1  UNL1        0.0716
     34 C          62.5554   81.9792   11.6478 C.ar    1  UNL1        0.0081
     35 C          62.4774   82.6947   12.9639 C.ar    1  UNL1        0.0491
     36 C          62.9039   79.7887   10.2949 C.3     1  UNL1        0.4186
     37 F          62.9819   79.0731    8.9789 F       1  UNL1       -0.1659
     38 F          63.2169   81.0852    9.6086 F       1  UNL1       -0.1659
     39 F          62.5909   78.4922   10.9813 F       1  UNL1       -0.1659
@<TRIPOS>BOND
     1    13    14    1
     2    14    15    2
     3    14    16   am
     4     7    16    1
     5     7     8    1
     6     8     9    1
     7     9    18    1
     8    18    20    1
     9    20    21    1
    10    20    22    1
    11    20    23    1
    12     9    10    1
    13    10    11    1
    14    11    12    1
    15    12     1    1
    16     1     2    1
    17     2     3    1
    18     3     4    1
    19     4    24    1
    20    24    26    1
    21    26    27   ar
    22    27    28   ar
    23    28    29   ar
    24    29    30   ar
    25    30    31   ar
    26    31    32   ar
    27    32    33   ar
    28    33    36    1
    29    36    37    1
    30    36    38    1
    31    36    39    1
    32    33    34   ar
    33    34    35   ar
    34     4     5    1
    35     5     6    2
    36    12     7    1
    37     5     1   am
    38    35    26   ar
    39    35    30   ar
    40    16    17    1
    41    18    19    1
    42    24    25    1
@<TRIPOS>MOLECULE
*****
 39 42 0 0 0
SMALL
GASTEIGER

@<TRIPOS>ATOM
      1 N          63.6998   87.3550   15.4239 N.am    1  UNL1       -0.2781
      2 C          63.1311   87.5281   16.8011 C.3     1  UNL1        0.0957
      3 C          63.0629   88.9978   17.0930 C.3     1  UNL1        0.0504
      4 C          63.5894   89.7331   15.8963 C.3     1  UNL1        0.1495
      5 C          63.9830   88.7178   14.8647 C.2     1  UNL1        0.2435
      6 O          64.5588   89.0133   13.5115 O.2     1  UNL1       -0.2731
      7 C          63.5199   85.8695   13.3000 C.3     1  UNL1        0.0910
      8 C          63.7627   84.5630   12.6041 C.3     1  UNL1        0.0369
      9 C          64.4282   83.4357   13.3363 C.3     1  UNL1        0.0557
     10 C          64.8509   83.6147   14.7644 C.3     1  UNL1        0.0175
     11 C          64.6081   84.9212   15.4602 C.3     1  UNL1        0.0229
     12 C          63.9426   86.0486   14.7280 C.3     1  UNL1        0.0933
     13 C          61.2625   87.8328   10.6924 C.3     1  UNL1        0.0946
     14 C          61.9280   86.7054   11.4246 C.2     1  UNL1        0.2230
     15 O          61.6671   85.2866   11.0136 O.2     1  UNL1       -0.2751
     16 N          62.8544   86.9969   12.5678 N.am    1  UNL1       -0.3043
     17 H          63.0257   87.9281   12.8376 H       1  UNL1        0.1494
     18 N          64.6711   82.1292   12.6406 N.3     1  UNL1       -0.3006
     19 H          64.6627   81.4063   13.3602 H       1  UNL1        0.1231
     20 C          63.7402   81.6721   11.5568 C.3     1  UNL1        0.0420
     21 C          62.9376   80.9087   12.5682 C.3     1  UNL1        0.0158
     22 C          64.5429   82.4355   10.5454 C.3     1  UNL1        0.0158
     23 C          62.8094   81.2150   10.4731 C.3     1  UNL1        0.0158
     24 N          63.7025   91.2222   15.7558 N.pl3   1  UNL1       -0.3122
     25 H          62.9352   91.7974   15.9787 H       1  UNL1        0.1486
     26 C          64.9847   91.8351   15.2757 C.ar    1  UNL1        0.1319
     27 N          66.0200   92.2803   16.2657 N.ar    1  UNL1       -0.2092
     28 C          67.3021   92.8931   15.7855 C.ar    1  UNL1        0.2000
     29 N          67.5490   93.0607   14.3155 N.ar    1  UNL1       -0.2239
     30 C          66.5137   92.6155   13.3256 C.ar    1  UNL1        0.0857
     31 C          66.7605   92.7831   11.8556 C.ar    1  UNL1        0.0192
     32 C          65.7253   92.3379   10.8657 C.ar    1  UNL1        0.0054
     33 C          64.4430   91.7251   11.3458 C.ar    1  UNL1        0.0716
     34 C          64.1962   91.5575   12.8158 C.ar    1  UNL1        0.0081
     35 C          65.2316   92.0027   13.8057 C.ar    1  UNL1        0.0491
     36 C          63.4078   91.2799   10.3559 C.3     1  UNL1        0.4186
     37 F          62.3724   90.8346    9.3659 F       1  UNL1       -0.1659
     38 F          63.5282   92.5923    9.6397 F       1  UNL1       -0.1659
     39 F          63.2874   89.9675   11.0720 F       1  UNL1       -0.1659
@<TRIPOS>BOND
     1    13    14    1
     2    14    15    2
     3    14    16   am
     4     7    16    1
     5     7     8    1
     6     8     9    1
     7     9    18    1
     8    18    20    1
     9    20    21    1
    10    20    22    1
    11    20    23    1
    12     9    10    1
    13    10    11    1
    14    11    12    1
    15    12     1    1
    16     1     2    1
    17     2     3    1
    18     3     4    1
    19     4    24    1
    20    24    26    1
    21    26    27   ar
    22    27    28   ar
    23    28    29   ar
    24    29    30   ar
    25    30    31   ar
    26    31    32   ar
    27    32    33   ar
    28    33    36    1
    29    36    37    1
    30    36    38    1
    31    36    39    1
    32    33    34   ar
    33    34    35   ar
    34     4     5    1
    35     5     6    2
    36    12     7    1
    37     5     1   am
    38    35    26   ar
    39    35    30   ar
    40    16    17    1
    41    18    19    1
    42    24    25    1
@<TRIPOS>MOLECULE
*****
 39 42 0 0 0
SMALL
GASTEIGER

@<TRIPOS>ATOM
      1 N          62.4650   90.1362   11.2331 N.am    1  UNL1       -0.2781
      2 C          61.1656   90.2817   10.4980 C.3     1  UNL1        0.0957
      3 C          60.3978   89.0029   10.6562 C.3     1  UNL1        0.0504
      4 C          61.2226   88.0670   11.4891 C.3     1  UNL1        0.1495
      5 C          62.5002   88.7674   11.8456 C.2     1  UNL1        0.2435
      6 O          63.6170   88.1988   12.6700 O.2     1  UNL1       -0.2731
      7 C          64.1209   91.5237   12.6762 C.3     1  UNL1        0.0910
      8 C          65.1963   92.5642   12.7805 C.3     1  UNL1        0.0369
      9 C          65.6911   93.2577   11.5459 C.3     1  UNL1        0.0557
     10 C          65.1106   92.9106   10.2071 C.3     1  UNL1        0.0175
     11 C          64.0352   91.8701   10.1028 C.3     1  UNL1        0.0229
     12 C          63.5404   91.1767   11.3374 C.3     1  UNL1        0.0933
     13 C          63.6586   90.5355   16.4919 C.3     1  UNL1        0.0946
     14 C          64.1534   91.2289   15.2573 C.2     1  UNL1        0.2230
     15 O          65.1756   92.3210   15.3692 O.2     1  UNL1       -0.2751
     16 N          63.6261   90.8303   13.9108 N.am    1  UNL1       -0.3043
     17 H          62.9552   90.1135   13.8374 H       1  UNL1        0.1494
     18 N          66.7665   94.2982   11.6501 N.3     1  UNL1       -0.3006
     19 H          67.6576   93.8019   11.6485 H       1  UNL1        0.1231
     20 C          66.8697   95.3767   10.6127 C.3     1  UNL1        0.0420
     21 C          67.7292   94.4827    9.7688 C.3     1  UNL1        0.0158
     22 C          66.0102   96.2707   11.4565 C.3     1  UNL1        0.0158
     23 C          66.9729   96.4551    9.5752 C.3     1  UNL1        0.0158
     24 N          60.8374   86.6750   11.8943 N.pl3   1  UNL1       -0.3122
     25 H          59.8889   86.4443   12.0225 H       1  UNL1        0.1486
     26 C          61.8974   85.6346   12.1043 C.ar    1  UNL1        0.1319
     27 N          62.3424   85.2872   13.4940 N.ar    1  UNL1       -0.2092
     28 C          63.4024   84.2468   13.7039 C.ar    1  UNL1        0.2000
     29 N          64.0173   83.5539   12.5242 N.ar    1  UNL1       -0.2239
     30 C          63.5722   83.9013   11.1345 C.ar    1  UNL1        0.0857
     31 C          64.1871   83.2084    9.9548 C.ar    1  UNL1        0.0192
     32 C          63.7421   83.5558    8.5652 C.ar    1  UNL1        0.0054
     33 C          62.6821   84.5962    8.3552 C.ar    1  UNL1        0.0716
     34 C          62.0672   85.2891    9.5349 C.ar    1  UNL1        0.0081
     35 C          62.5123   84.9417   10.9246 C.ar    1  UNL1        0.0491
     36 C          62.2370   84.9436    6.9655 C.3     1  UNL1        0.4186
     37 F          61.7919   85.2911    5.5758 F       1  UNL1       -0.1659
     38 F          63.4337   84.2341    6.4049 F       1  UNL1       -0.1659
     39 F          61.0403   85.6531    7.5262 F       1  UNL1       -0.1659
@<TRIPOS>BOND
     1    13    14    1
     2    14    15    2
     3    14    16   am
     4     7    16    1
     5     7     8    1
     6     8     9    1
     7     9    18    1
     8    18    20    1
     9    20    21    1
    10    20    22    1
    11    20    23    1
    12     9    10    1
    13    10    11    1
    14    11    12    1
    15    12     1    1
    16     1     2    1
    17     2     3    1
    18     3     4    1
    19     4    24    1
    20    24    26    1
    21    26    27   ar
    22    27    28   ar
    23    28    29   ar
    24    29    30   ar
    25    30    31   ar
    26    31    32   ar
    27    32    33   ar
    28    33    36    1
    29    36    37    1
    30    36    38    1
    31    36    39    1
    32    33    34   ar
    33    34    35   ar
    34     4     5    1
    35     5     6    2
    36    12     7    1
    37     5     1   am
    38    35    26   ar
    39    35    30   ar
    40    16    17    1
    41    18    19    1
    42    24    25    1
