@<TRIPOS>MOLECULE
*****
 42 47 0 0 0
SMALL
GASTEIGER

@<TRIPOS>ATOM
      1 N          65.3505   92.4247   12.0547 N.3     1  UNL1       -0.2679
      2 C          66.4040   92.7890   11.0510 C.3     1  UNL1        0.0978
      3 C          67.4702   91.7978   10.6895 C.3     1  UNL1        0.0224
      4 C          68.5237   92.1620    9.6858 C.3     1  UNL1        0.0065
      5 C          68.5111   93.5175    9.0436 C.3     1  UNL1        0.0277
      6 C          67.4449   94.5088    9.4051 C.ar    1  UNL1       -0.0073
      7 C          67.4323   95.8643    8.7629 C.ar    1  UNL1       -0.0015
      8 C          66.3661   96.8556    9.1245 C.ar    1  UNL1        0.0203
      9 C          65.3126   96.4913   10.1281 C.ar    1  UNL1        0.0985
     10 N          65.3252   95.1358   10.7703 N.ar    1  UNL1       -0.2471
     11 C          66.3914   94.1445   10.4088 C.ar    1  UNL1        0.0695
     12 C          63.9499   92.1374   11.6011 C.3     1  UNL1        0.0725
     13 C          63.6367   90.8452   10.9065 C.3     1  UNL1        0.0188
     14 C          62.5665   89.9436   11.4467 C.3     1  UNL1        0.0188
     15 C          62.7896   88.4612   11.4969 C.3     1  UNL1        0.0727
     16 N          61.6193   87.5301   11.6128 N.3     1  UNL1       -0.2652
     17 C          60.2629   87.9686   11.1462 C.3     1  UNL1        0.0994
     18 C          59.3244   88.0807    6.7466 C.ar    1  UNL1       -0.0000
     19 C          59.7348   89.3358    7.4581 C.ar    1  UNL1       -0.0003
     20 C          60.0476   89.2985    8.9247 C.ar    1  UNL1       -0.0029
     21 C          59.9501   88.0060    9.6797 C.ar    1  UNL1       -0.0061
     22 C          59.5397   86.7509    8.9681 C.ar    1  UNL1       -0.0029
     23 C          59.2269   86.7882    7.5016 C.ar    1  UNL1       -0.0003
     24 C          61.8055   86.1604   12.1954 C.3     1  UNL1        0.0994
     25 C          62.6328   85.1422   11.4682 C.ar    1  UNL1       -0.0061
     26 C          63.4068   84.1149   12.2401 C.ar    1  UNL1       -0.0029
     27 C          64.2341   83.0967   11.5130 C.ar    1  UNL1       -0.0003
     28 C          64.2874   83.1057   10.0140 C.ar    1  UNL1       -0.0000
     29 C          63.5135   84.1329    9.2421 C.ar    1  UNL1       -0.0003
     30 C          62.6862   85.1512    9.9692 C.ar    1  UNL1       -0.0029
     31 C          65.6975   92.3478   13.5119 C.3     1  UNL1        0.0886
     32 C          65.0116   91.3474   14.3945 C.3     1  UNL1        0.0748
     33 C          65.1006   89.8837   14.0792 C.3     1  UNL1        0.0432
     34 C          64.4147   88.8833   14.9618 C.ar    1  UNL1       -0.0234
     35 C          64.5038   87.4195   14.6465 C.ar    1  UNL1       -0.0045
     36 C          63.8179   86.4192   15.5291 C.ar    1  UNL1       -0.0003
     37 C          63.0430   86.8827   16.7269 C.ar    1  UNL1       -0.0003
     38 C          62.9540   88.3465   17.0422 C.ar    1  UNL1       -0.0032
     39 C          63.6399   89.3468   16.1596 C.ar    1  UNL1       -0.0103
     40 C          63.5509   90.8106   16.4749 C.3     1  UNL1        0.0953
     41 N          64.2368   91.8109   15.5923 N.3     1  UNL1       -0.2934
     42 H          64.8888   92.3267   16.1832 H       1  UNL1        0.1236
@<TRIPOS>BOND
     1    18    19   ar
     2    19    20   ar
     3    20    21   ar
     4    21    17    1
     5    17    16    1
     6    16    15    1
     7    15    14    1
     8    14    13    1
     9    13    12    1
    10    12     1    1
    11     1    31    1
    12    32    31    1
    13    32    33    1
    14    33    34    1
    15    34    35   ar
    16    35    36   ar
    17    36    37   ar
    18    37    38   ar
    19    38    39   ar
    20    39    40    1
    21    40    41    1
    22     2     1    1
    23     2     3    1
    24     3     4    1
    25     4     5    1
    26     5     6    1
    27     6     7   ar
    28     7     8   ar
    29     8     9   ar
    30     9    10   ar
    31    10    11   ar
    32    16    24    1
    33    24    25    1
    34    25    26   ar
    35    26    27   ar
    36    27    28   ar
    37    28    29   ar
    38    29    30   ar
    39    21    22   ar
    40    22    23   ar
    41    23    18   ar
    42    41    32    1
    43    11     2    1
    44    30    25   ar
    45    39    34   ar
    46    11     6   ar
    47    41    42    1
@<TRIPOS>MOLECULE
*****
 42 47 0 0 0
SMALL
GASTEIGER

@<TRIPOS>ATOM
      1 N          65.3802   92.4249   12.0645 N.3     1  UNL1       -0.2679
      2 C          66.4206   92.7969   11.0501 C.3     1  UNL1        0.0978
      3 C          67.4955   91.8168   10.6840 C.3     1  UNL1        0.0224
      4 C          68.5359   92.1888    9.6696 C.3     1  UNL1        0.0065
      5 C          68.5015   93.5409    9.0212 C.3     1  UNL1        0.0277
      6 C          67.4267   94.5211    9.3872 C.ar    1  UNL1       -0.0073
      7 C          67.3923   95.8733    8.7388 C.ar    1  UNL1       -0.0015
      8 C          66.3175   96.8535    9.1049 C.ar    1  UNL1        0.0203
      9 C          65.2770   96.4814   10.1193 C.ar    1  UNL1        0.0985
     10 N          65.3114   95.1293   10.7677 N.ar    1  UNL1       -0.2471
     11 C          66.3863   94.1491   10.4017 C.ar    1  UNL1        0.0695
     12 C          63.9695   92.1597   11.6293 C.3     1  UNL1        0.0725
     13 C          63.6252   90.8691   10.9466 C.3     1  UNL1        0.0188
     14 C          62.6460   89.9245   11.5781 C.3     1  UNL1        0.0188
     15 C          62.8540   88.4432   11.4664 C.3     1  UNL1        0.0727
     16 N          61.6965   87.5072   11.6513 N.3     1  UNL1       -0.2652
     17 C          61.9147   86.1571   12.2673 C.3     1  UNL1        0.0994
     18 C          64.2316   83.0122   10.0332 C.ar    1  UNL1       -0.0000
     19 C          64.1733   82.9779   11.5318 C.ar    1  UNL1       -0.0003
     20 C          63.4010   84.0262   12.2765 C.ar    1  UNL1       -0.0029
     21 C          62.6870   85.1088   11.5226 C.ar    1  UNL1       -0.0061
     22 C          62.7453   85.1431   10.0242 C.ar    1  UNL1       -0.0029
     23 C          63.5177   84.0948    9.2795 C.ar    1  UNL1       -0.0003
     24 C          60.3208   87.9214   11.2200 C.3     1  UNL1        0.0994
     25 C          59.9882   88.0127    9.7602 C.ar    1  UNL1       -0.0061
     26 C          60.1226   89.3221    9.0408 C.ar    1  UNL1       -0.0029
     27 C          59.7899   89.4134    7.5810 C.ar    1  UNL1       -0.0003
     28 C          59.3230   88.1954    6.8406 C.ar    1  UNL1       -0.0000
     29 C          59.1886   86.8860    7.5599 C.ar    1  UNL1       -0.0003
     30 C          59.5212   86.7946    9.0197 C.ar    1  UNL1       -0.0029
     31 C          65.7505   92.3181   13.5141 C.3     1  UNL1        0.0886
     32 C          65.0466   91.3308   14.3973 C.3     1  UNL1        0.0748
     33 C          65.1319   89.8633   14.0987 C.3     1  UNL1        0.0432
     34 C          64.4280   88.8761   14.9819 C.ar    1  UNL1       -0.0234
     35 C          64.5134   87.4086   14.6833 C.ar    1  UNL1       -0.0045
     36 C          63.8095   86.4214   15.5664 C.ar    1  UNL1       -0.0003
     37 C          63.0203   86.9017   16.7482 C.ar    1  UNL1       -0.0003
     38 C          62.9349   88.3692   17.0467 C.ar    1  UNL1       -0.0032
     39 C          63.6388   89.3564   16.1636 C.ar    1  UNL1       -0.0103
     40 C          63.5535   90.8239   16.4621 C.3     1  UNL1        0.0953
     41 N          64.2573   91.8111   15.5790 N.3     1  UNL1       -0.2934
     42 H          64.9038   92.3297   16.1737 H       1  UNL1        0.1236
@<TRIPOS>BOND
     1    18    19   ar
     2    19    20   ar
     3    20    21   ar
     4    21    17    1
     5    17    16    1
     6    16    15    1
     7    15    14    1
     8    14    13    1
     9    13    12    1
    10    12     1    1
    11     1    31    1
    12    32    31    1
    13    32    33    1
    14    33    34    1
    15    34    35   ar
    16    35    36   ar
    17    36    37   ar
    18    37    38   ar
    19    38    39   ar
    20    39    40    1
    21    40    41    1
    22     2     1    1
    23     2     3    1
    24     3     4    1
    25     4     5    1
    26     5     6    1
    27     6     7   ar
    28     7     8   ar
    29     8     9   ar
    30     9    10   ar
    31    10    11   ar
    32    16    24    1
    33    24    25    1
    34    25    26   ar
    35    26    27   ar
    36    27    28   ar
    37    28    29   ar
    38    29    30   ar
    39    21    22   ar
    40    22    23   ar
    41    23    18   ar
    42    41    32    1
    43    11     2    1
    44    30    25   ar
    45    39    34   ar
    46    11     6   ar
    47    41    42    1
@<TRIPOS>MOLECULE
*****
 42 47 0 0 0
SMALL
GASTEIGER

@<TRIPOS>ATOM
      1 N          62.9915   90.7136   12.2530 N.3     1  UNL1       -0.2679
      2 C          64.2203   91.5505   12.0540 C.3     1  UNL1        0.0978
      3 C          64.6476   91.9382   10.6695 C.3     1  UNL1        0.0224
      4 C          65.8764   92.7751   10.4705 C.3     1  UNL1        0.0065
      5 C          66.6780   93.2243   11.6561 C.3     1  UNL1        0.0277
      6 C          66.2507   92.8366   13.0407 C.ar    1  UNL1       -0.0073
      7 C          67.0522   93.2858   14.2264 C.ar    1  UNL1       -0.0015
      8 C          66.6250   92.8981   15.6109 C.ar    1  UNL1        0.0203
      9 C          65.3961   92.0612   15.8099 C.ar    1  UNL1        0.0985
     10 N          64.5946   91.6120   14.6243 N.ar    1  UNL1       -0.2471
     11 C          65.0219   91.9997   13.2396 C.ar    1  UNL1        0.0695
     12 C          62.9334   89.7219   13.3768 C.3     1  UNL1        0.0725
     13 C          63.8954   88.5714   13.4125 C.3     1  UNL1        0.0188
     14 C          64.2737   87.9505   14.7244 C.3     1  UNL1        0.0188
     15 C          64.6493   86.4996   14.7868 C.3     1  UNL1        0.0727
     16 N          63.6777   85.4529   14.3279 N.3     1  UNL1       -0.2652
     17 C          63.1350   85.4946   12.9302 C.3     1  UNL1        0.0994
     18 C          63.7651   81.9995   10.1667 C.ar    1  UNL1       -0.0000
     19 C          64.9455   82.7557   10.7007 C.ar    1  UNL1       -0.0003
     20 C          64.7354   83.9208   11.6218 C.ar    1  UNL1       -0.0029
     21 C          63.3450   84.3296   12.0090 C.ar    1  UNL1       -0.0061
     22 C          62.1648   83.5734   11.4750 C.ar    1  UNL1       -0.0029
     23 C          62.3749   82.4083   10.5539 C.ar    1  UNL1       -0.0003
     24 C          63.2488   84.3646   15.2668 C.3     1  UNL1        0.0994
     25 C          62.9567   82.9911   14.7395 C.ar    1  UNL1       -0.0061
     26 C          61.5392   82.5095   14.6455 C.ar    1  UNL1       -0.0029
     27 C          61.2471   81.1360   14.1182 C.ar    1  UNL1       -0.0003
     28 C          62.3725   80.2440   13.6848 C.ar    1  UNL1       -0.0000
     29 C          63.7900   80.7255   13.7788 C.ar    1  UNL1       -0.0003
     30 C          64.0821   82.0991   14.3062 C.ar    1  UNL1       -0.0029
     31 C          61.8208   90.8684   11.3281 C.3     1  UNL1        0.0886
     32 C          61.4348   89.7449   10.4122 C.3     1  UNL1        0.0748
     33 C          62.3824   88.6050   10.1829 C.3     1  UNL1        0.0432
     34 C          61.9964   87.4814    9.2670 C.ar    1  UNL1       -0.0234
     35 C          62.9439   86.3415    9.0377 C.ar    1  UNL1       -0.0045
     36 C          62.5579   85.2181    8.1218 C.ar    1  UNL1       -0.0003
     37 C          61.2243   85.2346    7.4353 C.ar    1  UNL1       -0.0003
     38 C          60.2768   86.3745    7.6646 C.ar    1  UNL1       -0.0032
     39 C          60.6628   87.4979    8.5805 C.ar    1  UNL1       -0.0103
     40 C          59.7152   88.6380    8.8099 C.3     1  UNL1        0.0953
     41 N          60.1012   89.7614    9.7257 N.3     1  UNL1       -0.2934
     42 H          59.3931   89.8002   10.4588 H       1  UNL1        0.1236
@<TRIPOS>BOND
     1    18    19   ar
     2    19    20   ar
     3    20    21   ar
     4    21    17    1
     5    17    16    1
     6    16    15    1
     7    15    14    1
     8    14    13    1
     9    13    12    1
    10    12     1    1
    11     1    31    1
    12    32    31    1
    13    32    33    1
    14    33    34    1
    15    34    35   ar
    16    35    36   ar
    17    36    37   ar
    18    37    38   ar
    19    38    39   ar
    20    39    40    1
    21    40    41    1
    22     2     1    1
    23     2     3    1
    24     3     4    1
    25     4     5    1
    26     5     6    1
    27     6     7   ar
    28     7     8   ar
    29     8     9   ar
    30     9    10   ar
    31    10    11   ar
    32    16    24    1
    33    24    25    1
    34    25    26   ar
    35    26    27   ar
    36    27    28   ar
    37    28    29   ar
    38    29    30   ar
    39    21    22   ar
    40    22    23   ar
    41    23    18   ar
    42    41    32    1
    43    11     2    1
    44    30    25   ar
    45    39    34   ar
    46    11     6   ar
    47    41    42    1
@<TRIPOS>MOLECULE
*****
 42 47 0 0 0
SMALL
GASTEIGER

@<TRIPOS>ATOM
      1 N          62.9905   90.6665   12.2872 N.3     1  UNL1       -0.2679
      2 C          64.2190   91.5114   12.1234 C.3     1  UNL1        0.0978
      3 C          64.6849   91.8996   10.7515 C.3     1  UNL1        0.0224
      4 C          65.9134   92.7446   10.5877 C.3     1  UNL1        0.0065
      5 C          66.6760   93.2013   11.7958 C.3     1  UNL1        0.0277
      6 C          66.2102   92.8132   13.1678 C.ar    1  UNL1       -0.0073
      7 C          66.9729   93.2699   14.3760 C.ar    1  UNL1       -0.0015
      8 C          66.5070   92.8818   15.7479 C.ar    1  UNL1        0.0203
      9 C          65.2785   92.0368   15.9117 C.ar    1  UNL1        0.0985
     10 N          64.5159   91.5800   14.7036 N.ar    1  UNL1       -0.2471
     11 C          64.9817   91.9682   13.3316 C.ar    1  UNL1        0.0695
     12 C          62.9196   89.6519   13.3897 C.3     1  UNL1        0.0725
     13 C          63.8968   88.5144   13.4261 C.3     1  UNL1        0.0188
     14 C          64.3375   87.9461   14.7425 C.3     1  UNL1        0.0188
     15 C          64.6879   86.4918   14.8519 C.3     1  UNL1        0.0727
     16 N          63.7183   85.4491   14.3800 N.3     1  UNL1       -0.2652
     17 C          63.2993   84.3425   15.3019 C.3     1  UNL1        0.0994
     18 C          62.3609   80.2660   13.6432 C.ar    1  UNL1       -0.0000
     19 C          61.2488   81.1682   14.0898 C.ar    1  UNL1       -0.0003
     20 C          61.5616   82.5270   14.6427 C.ar    1  UNL1       -0.0029
     21 C          62.9865   82.9837   14.7490 C.ar    1  UNL1       -0.0061
     22 C          64.0985   82.0814   14.3025 C.ar    1  UNL1       -0.0029
     23 C          63.7857   80.7226   13.7496 C.ar    1  UNL1       -0.0003
     24 C          63.1677   85.5130   12.9862 C.3     1  UNL1        0.0994
     25 C          63.3628   84.3582   12.0490 C.ar    1  UNL1       -0.0061
     26 C          64.7483   83.9133   11.6851 C.ar    1  UNL1       -0.0029
     27 C          64.9434   82.7585   10.7479 C.ar    1  UNL1       -0.0003
     28 C          63.7529   82.0484   10.1747 C.ar    1  UNL1       -0.0000
     29 C          62.3674   82.4932   10.5386 C.ar    1  UNL1       -0.0003
     30 C          62.1723   83.6481   11.4758 C.ar    1  UNL1       -0.0029
     31 C          61.8329   90.8362   11.3486 C.3     1  UNL1        0.0886
     32 C          61.4391   89.7151   10.4330 C.3     1  UNL1        0.0748
     33 C          62.3966   88.5911   10.1687 C.3     1  UNL1        0.0432
     34 C          62.0028   87.4700    9.2532 C.ar    1  UNL1       -0.0234
     35 C          62.9603   86.3460    8.9889 C.ar    1  UNL1       -0.0045
     36 C          62.5665   85.2250    8.0733 C.ar    1  UNL1       -0.0003
     37 C          61.2152   85.2280    7.4221 C.ar    1  UNL1       -0.0003
     38 C          60.2577   86.3520    7.6864 C.ar    1  UNL1       -0.0032
     39 C          60.6515   87.4730    8.6020 C.ar    1  UNL1       -0.0103
     40 C          59.6941   88.5970    8.8663 C.3     1  UNL1        0.0953
     41 N          60.0879   89.7180    9.7818 N.3     1  UNL1       -0.2934
     42 H          59.3988   89.7402   10.5335 H       1  UNL1        0.1236
@<TRIPOS>BOND
     1    18    19   ar
     2    19    20   ar
     3    20    21   ar
     4    21    17    1
     5    17    16    1
     6    16    15    1
     7    15    14    1
     8    14    13    1
     9    13    12    1
    10    12     1    1
    11     1    31    1
    12    32    31    1
    13    32    33    1
    14    33    34    1
    15    34    35   ar
    16    35    36   ar
    17    36    37   ar
    18    37    38   ar
    19    38    39   ar
    20    39    40    1
    21    40    41    1
    22     2     1    1
    23     2     3    1
    24     3     4    1
    25     4     5    1
    26     5     6    1
    27     6     7   ar
    28     7     8   ar
    29     8     9   ar
    30     9    10   ar
    31    10    11   ar
    32    16    24    1
    33    24    25    1
    34    25    26   ar
    35    26    27   ar
    36    27    28   ar
    37    28    29   ar
    38    29    30   ar
    39    21    22   ar
    40    22    23   ar
    41    23    18   ar
    42    41    32    1
    43    11     2    1
    44    30    25   ar
    45    39    34   ar
    46    11     6   ar
    47    41    42    1
@<TRIPOS>MOLECULE
*****
 42 47 0 0 0
SMALL
GASTEIGER

@<TRIPOS>ATOM
      1 N          61.8274   87.4240   11.2161 N.3     1  UNL1       -0.2679
      2 C          60.9743   87.1508   10.0130 C.3     1  UNL1        0.0978
      3 C          59.6033   87.7512    9.9137 C.3     1  UNL1        0.0224
      4 C          58.7502   87.4780    8.7106 C.3     1  UNL1        0.0065
      5 C          59.2679   86.6043    7.6068 C.3     1  UNL1        0.0277
      6 C          60.6389   86.0038    7.7061 C.ar    1  UNL1       -0.0073
      7 C          61.1567   85.1301    6.6022 C.ar    1  UNL1       -0.0015
      8 C          62.5276   84.5296    6.7015 C.ar    1  UNL1        0.0203
      9 C          63.3808   84.8028    7.9046 C.ar    1  UNL1        0.0985
     10 N          62.8630   85.6765    9.0084 N.ar    1  UNL1       -0.2471
     11 C          61.4920   86.2771    8.9092 C.ar    1  UNL1        0.0695
     12 C          61.5219   88.5953   12.1018 C.3     1  UNL1        0.0725
     13 C          61.8416   89.9869   11.6419 C.3     1  UNL1        0.0188
     14 C          63.2705   90.4224   11.5064 C.3     1  UNL1        0.0188
     15 C          63.7240   91.7105   12.1268 C.3     1  UNL1        0.0727
     16 N          64.7395   91.6948   13.2307 N.3     1  UNL1       -0.2652
     17 C          66.1918   91.9003   12.9167 C.3     1  UNL1        0.0994
     18 C          67.4002   94.5895    9.5170 C.ar    1  UNL1       -0.0000
     19 C          67.7973   93.1430    9.5067 C.ar    1  UNL1       -0.0003
     20 C          67.3945   92.2466   10.6399 C.ar    1  UNL1       -0.0029
     21 C          66.5946   92.7967   11.7835 C.ar    1  UNL1       -0.0061
     22 C          66.1975   94.2431   11.7938 C.ar    1  UNL1       -0.0029
     23 C          66.6003   95.1395   10.6605 C.ar    1  UNL1       -0.0003
     24 C          64.3027   91.4734   14.6485 C.3     1  UNL1        0.0994
     25 C          64.0648   90.0803   15.1512 C.ar    1  UNL1       -0.0061
     26 C          64.5988   88.9056   14.3864 C.ar    1  UNL1       -0.0029
     27 C          64.3610   87.5125   14.8891 C.ar    1  UNL1       -0.0003
     28 C          63.5891   87.2941   16.1565 C.ar    1  UNL1       -0.0000
     29 C          63.0551   88.4688   16.9213 C.ar    1  UNL1       -0.0003
     30 C          63.2929   89.8619   16.4186 C.ar    1  UNL1       -0.0029
     31 C          62.9861   86.5259   11.5335 C.3     1  UNL1        0.0886
     32 C          62.7526   85.2185   12.2309 C.3     1  UNL1        0.0748
     33 C          62.9529   83.9283   11.4925 C.3     1  UNL1        0.0432
     34 C          62.7194   82.6209   12.1899 C.ar    1  UNL1       -0.0234
     35 C          62.9197   81.3307   11.4515 C.ar    1  UNL1       -0.0045
     36 C          62.6862   80.0234   12.1489 C.ar    1  UNL1       -0.0003
     37 C          62.2525   80.0063   13.5847 C.ar    1  UNL1       -0.0003
     38 C          62.0522   81.2965   14.3231 C.ar    1  UNL1       -0.0032
     39 C          62.2857   82.6038   13.6257 C.ar    1  UNL1       -0.0103
     40 C          62.0854   83.8940   14.3641 C.3     1  UNL1        0.0953
     41 N          62.3189   85.2013   13.6667 N.3     1  UNL1       -0.2934
     42 H          63.0375   85.6939   14.1973 H       1  UNL1        0.1236
@<TRIPOS>BOND
     1    18    19   ar
     2    19    20   ar
     3    20    21   ar
     4    21    17    1
     5    17    16    1
     6    16    15    1
     7    15    14    1
     8    14    13    1
     9    13    12    1
    10    12     1    1
    11     1    31    1
    12    32    31    1
    13    32    33    1
    14    33    34    1
    15    34    35   ar
    16    35    36   ar
    17    36    37   ar
    18    37    38   ar
    19    38    39   ar
    20    39    40    1
    21    40    41    1
    22     2     1    1
    23     2     3    1
    24     3     4    1
    25     4     5    1
    26     5     6    1
    27     6     7   ar
    28     7     8   ar
    29     8     9   ar
    30     9    10   ar
    31    10    11   ar
    32    16    24    1
    33    24    25    1
    34    25    26   ar
    35    26    27   ar
    36    27    28   ar
    37    28    29   ar
    38    29    30   ar
    39    21    22   ar
    40    22    23   ar
    41    23    18   ar
    42    41    32    1
    43    11     2    1
    44    30    25   ar
    45    39    34   ar
    46    11     6   ar
    47    41    42    1
@<TRIPOS>MOLECULE
*****
 42 47 0 0 0
SMALL
GASTEIGER

@<TRIPOS>ATOM
      1 N          61.9610   87.4430   11.2089 N.3     1  UNL1       -0.2679
      2 C          61.0632   87.1668   10.0395 C.3     1  UNL1        0.0978
      3 C          59.6910   87.7705    9.9884 C.3     1  UNL1        0.0224
      4 C          58.7932   87.4943    8.8190 C.3     1  UNL1        0.0065
      5 C          59.2676   86.6145    7.7005 C.3     1  UNL1        0.0277
      6 C          60.6398   86.0109    7.7516 C.ar    1  UNL1       -0.0073
      7 C          61.1142   85.1310    6.6332 C.ar    1  UNL1       -0.0015
      8 C          62.4864   84.5274    6.6842 C.ar    1  UNL1        0.0203
      9 C          63.3842   84.8035    7.8537 C.ar    1  UNL1        0.0985
     10 N          62.9098   85.6833    8.9721 N.ar    1  UNL1       -0.2471
     11 C          61.5376   86.2870    8.9211 C.ar    1  UNL1        0.0695
     12 C          61.7277   88.6528   12.0644 C.3     1  UNL1        0.0725
     13 C          61.9787   90.0236   11.5093 C.3     1  UNL1        0.0188
     14 C          63.3800   90.5511   11.4189 C.3     1  UNL1        0.0188
     15 C          63.7621   91.7961   12.1632 C.3     1  UNL1        0.0727
     16 N          64.8336   91.7440   13.2117 N.3     1  UNL1       -0.2652
     17 C          64.4658   91.5284   14.6498 C.3     1  UNL1        0.0994
     18 C          63.5278   87.3857   16.1357 C.ar    1  UNL1       -0.0000
     19 C          64.3519   87.5690   14.8958 C.ar    1  UNL1       -0.0003
     20 C          64.6646   88.9500   14.4005 C.ar    1  UNL1       -0.0029
     21 C          64.1531   90.1475   15.1451 C.ar    1  UNL1       -0.0061
     22 C          63.3291   89.9641   16.3849 C.ar    1  UNL1       -0.0029
     23 C          63.0164   88.5832   16.8802 C.ar    1  UNL1       -0.0003
     24 C          66.2728   91.9076   12.8220 C.3     1  UNL1        0.0994
     25 C          66.6488   92.8544   11.7211 C.ar    1  UNL1       -0.0061
     26 C          67.4842   92.3742   10.5715 C.ar    1  UNL1       -0.0029
     27 C          67.8602   93.3211    9.4706 C.ar    1  UNL1       -0.0003
     28 C          67.4008   94.7482    9.5192 C.ar    1  UNL1       -0.0000
     29 C          66.5655   95.2284   10.6688 C.ar    1  UNL1       -0.0003
     30 C          66.1894   94.2815   11.7698 C.ar    1  UNL1       -0.0029
     31 C          63.0922   86.5093   11.5230 C.3     1  UNL1        0.0886
     32 C          62.8201   85.2088   12.2193 C.3     1  UNL1        0.0748
     33 C          62.9930   83.9134   11.4832 C.3     1  UNL1        0.0432
     34 C          62.7209   82.6129   12.1796 C.ar    1  UNL1       -0.0234
     35 C          62.8939   81.3175   11.4435 C.ar    1  UNL1       -0.0045
     36 C          62.6217   80.0171   12.1398 C.ar    1  UNL1       -0.0003
     37 C          62.1766   80.0122   13.5722 C.ar    1  UNL1       -0.0003
     38 C          62.0036   81.3076   14.3083 C.ar    1  UNL1       -0.0032
     39 C          62.2758   82.6080   13.6120 C.ar    1  UNL1       -0.0103
     40 C          62.1028   83.9036   14.3481 C.3     1  UNL1        0.0953
     41 N          62.3749   85.2039   13.6517 N.3     1  UNL1       -0.2934
     42 H          63.1017   85.6784   14.1876 H       1  UNL1        0.1236
@<TRIPOS>BOND
     1    18    19   ar
     2    19    20   ar
     3    20    21   ar
     4    21    17    1
     5    17    16    1
     6    16    15    1
     7    15    14    1
     8    14    13    1
     9    13    12    1
    10    12     1    1
    11     1    31    1
    12    32    31    1
    13    32    33    1
    14    33    34    1
    15    34    35   ar
    16    35    36   ar
    17    36    37   ar
    18    37    38   ar
    19    38    39   ar
    20    39    40    1
    21    40    41    1
    22     2     1    1
    23     2     3    1
    24     3     4    1
    25     4     5    1
    26     5     6    1
    27     6     7   ar
    28     7     8   ar
    29     8     9   ar
    30     9    10   ar
    31    10    11   ar
    32    16    24    1
    33    24    25    1
    34    25    26   ar
    35    26    27   ar
    36    27    28   ar
    37    28    29   ar
    38    29    30   ar
    39    21    22   ar
    40    22    23   ar
    41    23    18   ar
    42    41    32    1
    43    11     2    1
    44    30    25   ar
    45    39    34   ar
    46    11     6   ar
    47    41    42    1
@<TRIPOS>MOLECULE
*****
 42 47 0 0 0
SMALL
GASTEIGER

@<TRIPOS>ATOM
      1 N          63.5388   90.4594   12.2311 N.3     1  UNL1       -0.2679
      2 C          64.5193   91.5808   12.0546 C.3     1  UNL1        0.0978
      3 C          64.7549   92.1637   10.6927 C.3     1  UNL1        0.0224
      4 C          65.7353   93.2851   10.5163 C.3     1  UNL1        0.0065
      5 C          66.4801   93.8237   11.7016 C.3     1  UNL1        0.0277
      6 C          66.2444   93.2409   13.0635 C.ar    1  UNL1       -0.0073
      7 C          66.9892   93.7795   14.2490 C.ar    1  UNL1       -0.0015
      8 C          66.7536   93.1967   15.6108 C.ar    1  UNL1        0.0203
      9 C          65.7732   92.0752   15.7873 C.ar    1  UNL1        0.0985
     10 N          65.0284   91.5366   14.6019 N.ar    1  UNL1       -0.2471
     11 C          65.2640   92.1195   13.2400 C.ar    1  UNL1        0.0695
     12 C          62.6832   90.0230   11.0790 C.3     1  UNL1        0.0725
     13 C          61.2940   90.5683   10.9277 C.3     1  UNL1        0.0188
     14 C          60.2158   89.7174   10.3247 C.3     1  UNL1        0.0188
     15 C          59.9468   89.7810    8.8504 C.3     1  UNL1        0.0727
     16 N          59.4404   88.5682    8.1274 N.3     1  UNL1       -0.2652
     17 C          58.7197   88.7205    6.8208 C.3     1  UNL1        0.0994
     18 C          59.4553   92.3428    4.2542 C.ar    1  UNL1       -0.0000
     19 C          58.0629   92.0124    4.7037 C.ar    1  UNL1       -0.0003
     20 C          57.8177   90.8049    5.5592 C.ar    1  UNL1       -0.0029
     21 C          58.9649   89.9279    5.9652 C.ar    1  UNL1       -0.0061
     22 C          60.3572   90.2584    5.5157 C.ar    1  UNL1       -0.0029
     23 C          60.6025   91.4658    4.6602 C.ar    1  UNL1       -0.0003
     24 C          59.6547   87.2032    8.7111 C.3     1  UNL1        0.0994
     25 C          60.7337   86.3152    8.1658 C.ar    1  UNL1       -0.0061
     26 C          60.4545   85.4348    6.9838 C.ar    1  UNL1       -0.0029
     27 C          61.5334   84.5469    6.4385 C.ar    1  UNL1       -0.0003
     28 C          62.8916   84.5393    7.0752 C.ar    1  UNL1       -0.0000
     29 C          63.1708   85.4197    8.2571 C.ar    1  UNL1       -0.0003
     30 C          62.0918   86.3077    8.8025 C.ar    1  UNL1       -0.0029
     31 C          63.4141   89.7744   13.5597 C.3     1  UNL1        0.0886
     32 C          63.6283   88.2933   13.6630 C.3     1  UNL1        0.0748
     33 C          63.0398   87.3767   12.6318 C.3     1  UNL1        0.0432
     34 C          63.2541   85.8956   12.7351 C.ar    1  UNL1       -0.0234
     35 C          62.6655   84.9789   11.7039 C.ar    1  UNL1       -0.0045
     36 C          62.8798   83.4980   11.8073 C.ar    1  UNL1       -0.0003
     37 C          63.6826   82.9336   12.9417 C.ar    1  UNL1       -0.0003
     38 C          64.2711   83.8503   13.9729 C.ar    1  UNL1       -0.0032
     39 C          64.0569   85.3313   13.8696 C.ar    1  UNL1       -0.0103
     40 C          64.6454   86.2480   14.9008 C.3     1  UNL1        0.0953
     41 N          64.4311   87.7290   14.7974 N.3     1  UNL1       -0.2934
     42 H          65.3554   88.1573   14.7458 H       1  UNL1        0.1236
@<TRIPOS>BOND
     1    18    19   ar
     2    19    20   ar
     3    20    21   ar
     4    21    17    1
     5    17    16    1
     6    16    15    1
     7    15    14    1
     8    14    13    1
     9    13    12    1
    10    12     1    1
    11     1    31    1
    12    32    31    1
    13    32    33    1
    14    33    34    1
    15    34    35   ar
    16    35    36   ar
    17    36    37   ar
    18    37    38   ar
    19    38    39   ar
    20    39    40    1
    21    40    41    1
    22     2     1    1
    23     2     3    1
    24     3     4    1
    25     4     5    1
    26     5     6    1
    27     6     7   ar
    28     7     8   ar
    29     8     9   ar
    30     9    10   ar
    31    10    11   ar
    32    16    24    1
    33    24    25    1
    34    25    26   ar
    35    26    27   ar
    36    27    28   ar
    37    28    29   ar
    38    29    30   ar
    39    21    22   ar
    40    22    23   ar
    41    23    18   ar
    42    41    32    1
    43    11     2    1
    44    30    25   ar
    45    39    34   ar
    46    11     6   ar
    47    41    42    1
@<TRIPOS>MOLECULE
*****
 42 47 0 0 0
SMALL
GASTEIGER

@<TRIPOS>ATOM
      1 N          61.6751   87.4889   11.0584 N.3     1  UNL1       -0.2679
      2 C          60.8526   87.1326    9.8557 C.3     1  UNL1        0.0978
      3 C          59.4523   87.6539    9.7235 C.3     1  UNL1        0.0224
      4 C          58.6298   87.2976    8.5207 C.3     1  UNL1        0.0065
      5 C          59.2076   86.4200    7.4503 C.3     1  UNL1        0.0277
      6 C          60.6078   85.8987    7.5825 C.ar    1  UNL1       -0.0073
      7 C          61.1856   85.0210    6.5120 C.ar    1  UNL1       -0.0015
      8 C          62.5859   84.4997    6.6442 C.ar    1  UNL1        0.0203
      9 C          63.4084   84.8560    7.8470 C.ar    1  UNL1        0.0985
     10 N          62.8306   85.7336    8.9174 N.ar    1  UNL1       -0.2471
     11 C          61.4303   86.2550    8.7852 C.ar    1  UNL1        0.0695
     12 C          61.2967   88.6695   11.9028 C.3     1  UNL1        0.0725
     13 C          61.8849   90.0185   11.6125 C.3     1  UNL1        0.0188
     14 C          63.3599   90.2428   11.7679 C.3     1  UNL1        0.0188
     15 C          63.9559   91.5761   11.4258 C.3     1  UNL1        0.0727
     16 N          64.9994   92.1820   12.3168 N.3     1  UNL1       -0.2652
     17 C          65.3719   91.5059   13.6029 C.3     1  UNL1        0.0994
     18 C          68.9883   92.8796   15.9018 C.ar    1  UNL1       -0.0000
     19 C          67.6161   93.0747   16.4757 C.ar    1  UNL1       -0.0003
     20 C          66.4107   92.6168   15.7094 C.ar    1  UNL1       -0.0029
     21 C          66.5774   91.9638   14.3692 C.ar    1  UNL1       -0.0061
     22 C          67.9495   91.7687   13.7955 C.ar    1  UNL1       -0.0029
     23 C          69.1549   92.2266   14.5618 C.ar    1  UNL1       -0.0003
     24 C          65.6704   93.4641   11.9217 C.3     1  UNL1        0.0994
     25 C          66.5582   93.5046   10.7134 C.ar    1  UNL1       -0.0061
     26 C          67.4639   92.3481   10.4091 C.ar    1  UNL1       -0.0029
     27 C          68.3517   92.3886    9.2008 C.ar    1  UNL1       -0.0003
     28 C          68.3340   93.5854    8.2968 C.ar    1  UNL1       -0.0000
     29 C          67.4284   94.7418    8.6011 C.ar    1  UNL1       -0.0003
     30 C          66.5405   94.7014    9.8094 C.ar    1  UNL1       -0.0029
     31 C          62.8759   86.6646   11.4168 C.3     1  UNL1        0.0886
     32 C          62.7042   85.3718   12.1580 C.3     1  UNL1        0.0748
     33 C          62.8561   84.0667   11.4346 C.3     1  UNL1        0.0432
     34 C          62.6844   82.7739   12.1758 C.ar    1  UNL1       -0.0234
     35 C          62.8364   81.4687   11.4524 C.ar    1  UNL1       -0.0045
     36 C          62.6647   80.1760   12.1936 C.ar    1  UNL1       -0.0003
     37 C          62.3410   80.1885   13.6582 C.ar    1  UNL1       -0.0003
     38 C          62.1891   81.4937   14.3816 C.ar    1  UNL1       -0.0032
     39 C          62.3608   82.7864   13.6404 C.ar    1  UNL1       -0.0103
     40 C          62.2088   84.0917   14.3638 C.3     1  UNL1        0.0953
     41 N          62.3805   85.3843   13.6226 N.3     1  UNL1       -0.2934
     42 H          63.1341   85.8918   14.0864 H       1  UNL1        0.1236
@<TRIPOS>BOND
     1    18    19   ar
     2    19    20   ar
     3    20    21   ar
     4    21    17    1
     5    17    16    1
     6    16    15    1
     7    15    14    1
     8    14    13    1
     9    13    12    1
    10    12     1    1
    11     1    31    1
    12    32    31    1
    13    32    33    1
    14    33    34    1
    15    34    35   ar
    16    35    36   ar
    17    36    37   ar
    18    37    38   ar
    19    38    39   ar
    20    39    40    1
    21    40    41    1
    22     2     1    1
    23     2     3    1
    24     3     4    1
    25     4     5    1
    26     5     6    1
    27     6     7   ar
    28     7     8   ar
    29     8     9   ar
    30     9    10   ar
    31    10    11   ar
    32    16    24    1
    33    24    25    1
    34    25    26   ar
    35    26    27   ar
    36    27    28   ar
    37    28    29   ar
    38    29    30   ar
    39    21    22   ar
    40    22    23   ar
    41    23    18   ar
    42    41    32    1
    43    11     2    1
    44    30    25   ar
    45    39    34   ar
    46    11     6   ar
    47    41    42    1
@<TRIPOS>MOLECULE
*****
 42 47 0 0 0
SMALL
GASTEIGER

@<TRIPOS>ATOM
      1 N          63.6317   90.0830   13.2515 N.3     1  UNL1       -0.2679
      2 C          64.5871   91.1648   13.6601 C.3     1  UNL1        0.0978
      3 C          65.0423   91.2643   15.0858 C.3     1  UNL1        0.0224
      4 C          65.9977   92.3462   15.4944 C.3     1  UNL1        0.0065
      5 C          66.4978   93.3285   14.4771 C.3     1  UNL1        0.0277
      6 C          66.0426   93.2290   13.0514 C.ar    1  UNL1       -0.0073
      7 C          66.5427   94.2114   12.0341 C.ar    1  UNL1       -0.0015
      8 C          66.0875   94.1120   10.6083 C.ar    1  UNL1        0.0203
      9 C          65.1321   93.0301   10.1998 C.ar    1  UNL1        0.0985
     10 N          64.6320   92.0478   11.2170 N.ar    1  UNL1       -0.2471
     11 C          65.0872   92.1472   12.6428 C.ar    1  UNL1        0.0695
     12 C          63.9903   88.6433   13.4719 C.3     1  UNL1        0.0725
     13 C          64.3168   88.1544   14.8519 C.3     1  UNL1        0.0188
     14 C          64.7688   86.7392   15.0588 C.3     1  UNL1        0.0188
     15 C          63.8451   85.7421   15.6934 C.3     1  UNL1        0.0727
     16 N          62.9604   84.8872   14.8352 N.3     1  UNL1       -0.2652
     17 C          62.7476   85.2394   13.3928 C.3     1  UNL1        0.0994
     18 C          63.9886   82.3583   10.1664 C.ar    1  UNL1       -0.0000
     19 C          65.0118   82.9066   11.1164 C.ar    1  UNL1       -0.0003
     20 C          64.5981   83.8669   12.1919 C.ar    1  UNL1       -0.0029
     21 C          63.1613   84.2790   12.3173 C.ar    1  UNL1       -0.0061
     22 C          62.1381   83.7307   11.3673 C.ar    1  UNL1       -0.0029
     23 C          62.5518   82.7704   10.2918 C.ar    1  UNL1       -0.0003
     24 C          62.2885   83.6800   15.4195 C.3     1  UNL1        0.0994
     25 C          62.3451   82.3668   14.6969 C.ar    1  UNL1       -0.0061
     26 C          63.6714   81.7458   14.3725 C.ar    1  UNL1       -0.0029
     27 C          63.7280   80.4326   13.6499 C.ar    1  UNL1       -0.0003
     28 C          62.4583   79.7403   13.2517 C.ar    1  UNL1       -0.0000
     29 C          61.1320   80.3612   13.5761 C.ar    1  UNL1       -0.0003
     30 C          61.0754   81.6745   14.2988 C.ar    1  UNL1       -0.0029
     31 C          62.3178   90.4409   12.6227 C.3     1  UNL1        0.0886
     32 C          61.6985   89.5267   11.6074 C.3     1  UNL1        0.0748
     33 C          62.5451   88.5142   10.8945 C.3     1  UNL1        0.0432
     34 C          61.9258   87.6000    9.8793 C.ar    1  UNL1       -0.0234
     35 C          62.7723   86.5876    9.1664 C.ar    1  UNL1       -0.0045
     36 C          62.1530   85.6734    8.1512 C.ar    1  UNL1       -0.0003
     37 C          60.6871   85.7717    7.8489 C.ar    1  UNL1       -0.0003
     38 C          59.8405   86.7841    8.5617 C.ar    1  UNL1       -0.0032
     39 C          60.4598   87.6983    9.5769 C.ar    1  UNL1       -0.0103
     40 C          59.6132   88.7108   10.2899 C.3     1  UNL1        0.0953
     41 N          60.2326   89.6249   11.3051 N.3     1  UNL1       -0.2934
     42 H          59.7394   89.4664   12.1838 H       1  UNL1        0.1236
@<TRIPOS>BOND
     1    18    19   ar
     2    19    20   ar
     3    20    21   ar
     4    21    17    1
     5    17    16    1
     6    16    15    1
     7    15    14    1
     8    14    13    1
     9    13    12    1
    10    12     1    1
    11     1    31    1
    12    32    31    1
    13    32    33    1
    14    33    34    1
    15    34    35   ar
    16    35    36   ar
    17    36    37   ar
    18    37    38   ar
    19    38    39   ar
    20    39    40    1
    21    40    41    1
    22     2     1    1
    23     2     3    1
    24     3     4    1
    25     4     5    1
    26     5     6    1
    27     6     7   ar
    28     7     8   ar
    29     8     9   ar
    30     9    10   ar
    31    10    11   ar
    32    16    24    1
    33    24    25    1
    34    25    26   ar
    35    26    27   ar
    36    27    28   ar
    37    28    29   ar
    38    29    30   ar
    39    21    22   ar
    40    22    23   ar
    41    23    18   ar
    42    41    32    1
    43    11     2    1
    44    30    25   ar
    45    39    34   ar
    46    11     6   ar
    47    41    42    1
