@<TRIPOS>MOLECULE
*****
 35 39 0 0 0
SMALL
GASTEIGER

@<TRIPOS>ATOM
      1 C          61.3435   86.3979    8.7363 C.3     1  UNL1        0.0731
      2 N          62.1178   85.6653    9.7916 N.3     1  UNL1       -0.2712
      3 C          62.9594   84.4421    9.5782 C.3     1  UNL1        0.0738
      4 C          63.5482   84.0482   10.9004 C.3     1  UNL1        0.0372
      5 C          64.4322   83.0487   11.5856 C.3     1  UNL1        0.0245
      6 C          64.5009   83.4107   13.0397 C.3     1  UNL1        0.0910
      7 N          63.6593   84.6339   13.2531 N.pl3   1  UNL1       -0.3042
      8 C          63.0705   85.0279   11.9309 C.3     1  UNL1        0.0902
      9 C          62.1865   86.0273   11.2457 C.3     1  UNL1        0.0921
     10 C          63.4443   85.3393   14.5593 C.ar    1  UNL1        0.1036
     11 C          63.8679   86.7694   14.7180 C.ar    1  UNL1        0.1578
     12 F          64.5066   87.4943   13.5705 F       1  UNL1       -0.2027
     13 C          63.6529   87.4748   16.0242 C.ar    1  UNL1        0.0607
     14 C          63.0142   86.7500   17.1717 C.ar    1  UNL1        0.1447
     15 F          62.7992   87.4554   18.4780 F       1  UNL1       -0.2040
     16 C          62.5905   85.3198   17.0131 C.ar    1  UNL1        0.0607
     17 C          62.8056   84.6145   15.7068 C.ar    1  UNL1        0.1578
     18 F          62.3819   83.1843   15.5481 F       1  UNL1       -0.2027
     19 C          60.3048   87.4052    9.1317 C.3     1  UNL1        0.0294
     20 C          60.5489   88.8664    8.8963 C.3     1  UNL1        0.0666
     21 S          60.2524   89.8604    9.9797 S.3     1  UNL1       -0.0756
     22 C          63.1112   91.4324   10.0573 C.3     1  UNL1        0.1340
     23 N          62.4791   90.6951   11.2005 N.ar    1  UNL1       -0.2884
     24 C          61.1651   89.9726   11.1648 C.ar    1  UNL1        0.1932
     25 N          60.9240   89.3818   12.5224 N.ar    1  UNL1       -0.1221
     26 N          62.0890   89.7392   13.3970 N.ar    1  UNL1       -0.1282
     27 C          63.0501   90.5509   12.5801 C.ar    1  UNL1        0.1670
     28 C          64.3534   91.1187   13.0587 C.ar    1  UNL1        0.0422
     29 C          64.9345   90.6651   14.3650 C.ar    1  UNL1        0.0219
     30 C          66.2378   91.2329   14.8436 C.ar    1  UNL1        0.0785
     31 N          66.9600   92.2544   14.0158 N.ar    1  UNL1       -0.2922
     32 C          68.2633   92.8222   14.4944 C.3     1  UNL1        0.1336
     33 C          66.3789   92.7080   12.7094 C.ar    1  UNL1        0.2611
     34 O          67.1011   93.7294   11.8817 O.2     1  UNL1       -0.2670
     35 C          65.0755   92.1401   12.2309 C.ar    1  UNL1        0.0638
@<TRIPOS>BOND
     1    22    23    1
     2    23    24   ar
     3    24    21    1
     4    21    20    1
     5    20    19    1
     6    19     1    1
     7     1     2    1
     8     2     3    1
     9     3     4    1
    10     4     5    1
    11     5     6    1
    12     6     7    1
    13     7    10    1
    14    10    11   ar
    15    11    12    1
    16    11    13   ar
    17    13    14   ar
    18    14    15    1
    19    14    16   ar
    20    16    17   ar
    21    17    18    1
    22     7     8    1
    23     8     9    1
    24    24    25   ar
    25    25    26   ar
    26    26    27   ar
    27    27    28    1
    28    28    29   ar
    29    29    30   ar
    30    30    31   ar
    31    31    32    1
    32    31    33   ar
    33    33    34    2
    34    33    35   ar
    35    27    23   ar
    36    35    28   ar
    37     9     2    1
    38     8     4    1
    39    17    10   ar
@<TRIPOS>MOLECULE
*****
 35 39 0 0 0
SMALL
GASTEIGER

@<TRIPOS>ATOM
      1 C          61.2790   86.4019    8.7430 C.3     1  UNL1        0.0731
      2 N          62.0658   85.6749    9.7930 N.3     1  UNL1       -0.2712
      3 C          62.9171   84.4596    9.5732 C.3     1  UNL1        0.0738
      4 C          63.5168   84.0692   10.8915 C.3     1  UNL1        0.0372
      5 C          64.4135   83.0768   11.5704 C.3     1  UNL1        0.0245
      6 C          64.4871   83.4373   13.0246 C.3     1  UNL1        0.0910
      7 N          63.6357   84.6527   13.2444 N.pl3   1  UNL1       -0.3042
      8 C          63.0361   85.0431   11.9261 C.3     1  UNL1        0.0902
      9 C          62.1393   86.0355   11.2472 C.3     1  UNL1        0.0921
     10 C          63.4217   85.3543   14.5528 C.ar    1  UNL1        0.1036
     11 C          62.7642   84.6330   15.6918 C.ar    1  UNL1        0.1578
     12 F          62.3208   83.2100   15.5225 F       1  UNL1       -0.2027
     13 C          62.5501   85.3346   17.0002 C.ar    1  UNL1        0.0607
     14 C          62.9935   86.7575   17.1696 C.ar    1  UNL1        0.1447
     15 F          62.7795   87.4592   18.4780 F       1  UNL1       -0.2040
     16 C          63.6510   87.4789   16.0305 C.ar    1  UNL1        0.0607
     17 C          63.8651   86.7773   14.7221 C.ar    1  UNL1        0.1578
     18 F          64.5225   87.4985   13.5830 F       1  UNL1       -0.2027
     19 C          60.2660   87.4327    9.1444 C.3     1  UNL1        0.0294
     20 C          60.5330   88.8864    8.8884 C.3     1  UNL1        0.0666
     21 S          60.2620   89.8991    9.9612 S.3     1  UNL1       -0.0756
     22 C          63.1359   91.4430   10.0392 C.3     1  UNL1        0.1340
     23 N          62.4978   90.7096   11.1815 N.ar    1  UNL1       -0.2884
     24 C          61.1768   89.9999   11.1456 C.ar    1  UNL1        0.1932
     25 N          60.9311   89.4088   12.5022 N.ar    1  UNL1       -0.1221
     26 N          62.1003   89.7531   13.3765 N.ar    1  UNL1       -0.1282
     27 C          63.0686   90.5570   12.5603 C.ar    1  UNL1        0.1670
     28 C          64.3778   91.1111   13.0389 C.ar    1  UNL1        0.0422
     29 C          64.9546   90.6509   14.3448 C.ar    1  UNL1        0.0219
     30 C          66.2638   91.2050   14.8234 C.ar    1  UNL1        0.0785
     31 N          66.9962   92.2193   13.9958 N.ar    1  UNL1       -0.2922
     32 C          68.3054   92.7734   14.4744 C.3     1  UNL1        0.1336
     33 C          66.4194   92.6796   12.6899 C.ar    1  UNL1        0.2611
     34 O          67.1519   93.6939   11.8625 O.2     1  UNL1       -0.2670
     35 C          65.1102   92.1254   12.2114 C.ar    1  UNL1        0.0638
@<TRIPOS>BOND
     1    22    23    1
     2    23    24   ar
     3    24    21    1
     4    21    20    1
     5    20    19    1
     6    19     1    1
     7     1     2    1
     8     2     3    1
     9     3     4    1
    10     4     5    1
    11     5     6    1
    12     6     7    1
    13     7    10    1
    14    10    11   ar
    15    11    12    1
    16    11    13   ar
    17    13    14   ar
    18    14    15    1
    19    14    16   ar
    20    16    17   ar
    21    17    18    1
    22     7     8    1
    23     8     9    1
    24    24    25   ar
    25    25    26   ar
    26    26    27   ar
    27    27    28    1
    28    28    29   ar
    29    29    30   ar
    30    30    31   ar
    31    31    32    1
    32    31    33   ar
    33    33    34    2
    34    33    35   ar
    35    27    23   ar
    36    35    28   ar
    37     9     2    1
    38     8     4    1
    39    17    10   ar
@<TRIPOS>MOLECULE
*****
 35 39 0 0 0
SMALL
GASTEIGER

@<TRIPOS>ATOM
      1 C          62.9456   83.9093   15.3043 C.3     1  UNL1        0.0731
      2 N          63.0497   84.0185   13.8119 N.3     1  UNL1       -0.2712
      3 C          63.8060   83.0883   12.9103 C.3     1  UNL1        0.0738
      4 C          63.6394   83.5721   11.5003 C.3     1  UNL1        0.0372
      5 C          64.0039   83.2962   10.0717 C.3     1  UNL1        0.0245
      6 C          63.3699   84.3548    9.2187 C.3     1  UNL1        0.0910
      7 N          62.6136   85.2850   10.1203 N.pl3   1  UNL1       -0.3042
      8 C          62.7802   84.8012   11.5304 C.3     1  UNL1        0.0902
      9 C          62.4157   85.0771   12.9590 C.3     1  UNL1        0.0921
     10 C          61.8285   86.4877    9.6878 C.ar    1  UNL1        0.1036
     11 C          62.0503   87.8098   10.3606 C.ar    1  UNL1        0.1578
     12 F          63.0572   87.9293   11.4661 F       1  UNL1       -0.2027
     13 C          61.2653   89.0126    9.9281 C.ar    1  UNL1        0.0607
     14 C          60.2584   88.8932    8.8227 C.ar    1  UNL1        0.1447
     15 F          59.4734   90.0960    8.3901 F       1  UNL1       -0.2040
     16 C          60.0366   87.5711    8.1498 C.ar    1  UNL1        0.0607
     17 C          60.8216   86.3683    8.5823 C.ar    1  UNL1        0.1578
     18 F          60.5998   85.0462    7.9095 F       1  UNL1       -0.2027
     19 C          62.4471   85.0731   16.1085 C.3     1  UNL1        0.0294
     20 C          63.3983   86.1505   16.5382 C.3     1  UNL1        0.0666
     21 S          62.8732   87.4103   17.1601 S.3     1  UNL1       -0.0756
     22 C          64.3217   87.9032   14.2777 C.3     1  UNL1        0.1340
     23 N          63.8876   88.9689   15.2399 N.ar    1  UNL1       -0.2884
     24 C          63.2218   88.7423   16.5648 C.ar    1  UNL1        0.1932
     25 N          62.9658   90.0816   17.1900 N.ar    1  UNL1       -0.1221
     26 N          63.4734   91.1359   16.2515 N.ar    1  UNL1       -0.1282
     27 C          64.0432   90.4482   15.0463 C.ar    1  UNL1        0.1670
     28 C          64.6601   91.1216   13.8563 C.ar    1  UNL1        0.0422
     29 C          66.0296   91.7243   13.9619 C.ar    1  UNL1        0.0219
     30 C          66.6465   92.3977   12.7720 C.ar    1  UNL1        0.0785
     31 N          65.8937   92.4684   11.4764 N.ar    1  UNL1       -0.2922
     32 C          66.5107   93.1418   10.2865 C.3     1  UNL1        0.1336
     33 C          64.5242   91.8658   11.3708 C.ar    1  UNL1        0.2611
     34 O          63.7716   91.9366   10.0752 O.2     1  UNL1       -0.2670
     35 C          63.9074   91.1924   12.5608 C.ar    1  UNL1        0.0638
@<TRIPOS>BOND
     1    22    23    1
     2    23    24   ar
     3    24    21    1
     4    21    20    1
     5    20    19    1
     6    19     1    1
     7     1     2    1
     8     2     3    1
     9     3     4    1
    10     4     5    1
    11     5     6    1
    12     6     7    1
    13     7    10    1
    14    10    11   ar
    15    11    12    1
    16    11    13   ar
    17    13    14   ar
    18    14    15    1
    19    14    16   ar
    20    16    17   ar
    21    17    18    1
    22     7     8    1
    23     8     9    1
    24    24    25   ar
    25    25    26   ar
    26    26    27   ar
    27    27    28    1
    28    28    29   ar
    29    29    30   ar
    30    30    31   ar
    31    31    32    1
    32    31    33   ar
    33    33    34    2
    34    33    35   ar
    35    27    23   ar
    36    35    28   ar
    37     9     2    1
    38     8     4    1
    39    17    10   ar
@<TRIPOS>MOLECULE
*****
 35 39 0 0 0
SMALL
GASTEIGER

@<TRIPOS>ATOM
      1 C          62.8899   83.6746   15.2939 C.3     1  UNL1        0.0731
      2 N          63.0101   83.8523   13.8093 N.3     1  UNL1       -0.2712
      3 C          63.7665   82.9577   12.8726 C.3     1  UNL1        0.0738
      4 C          63.6188   83.5084   11.4852 C.3     1  UNL1        0.0372
      5 C          63.9950   83.2958   10.0488 C.3     1  UNL1        0.0245
      6 C          63.3799   84.3995    9.2402 C.3     1  UNL1        0.0910
      7 N          62.6235   85.2941   10.1770 N.pl3   1  UNL1       -0.3042
      8 C          62.7712   84.7434   11.5644 C.3     1  UNL1        0.0902
      9 C          62.3950   84.9560   13.0009 C.3     1  UNL1        0.0921
     10 C          61.8544   86.5236    9.7937 C.ar    1  UNL1        0.1036
     11 C          60.8520   86.4642    8.6795 C.ar    1  UNL1        0.1578
     12 F          60.6185   85.1753    7.9486 F       1  UNL1       -0.2027
     13 C          60.0829   87.6937    8.2961 C.ar    1  UNL1        0.0607
     14 C          60.3164   88.9826    9.0270 C.ar    1  UNL1        0.1447
     15 F          59.5474   90.2121    8.6436 F       1  UNL1       -0.2040
     16 C          61.3189   89.0421   10.1413 C.ar    1  UNL1        0.0607
     17 C          62.0879   87.8126   10.5246 C.ar    1  UNL1        0.1578
     18 F          63.0904   87.8720   11.6388 F       1  UNL1       -0.2027
     19 C          62.3898   84.8030   16.1463 C.3     1  UNL1        0.0294
     20 C          63.3263   85.8960   16.5688 C.3     1  UNL1        0.0666
     21 S          62.7859   87.1424   17.2047 S.3     1  UNL1       -0.0756
     22 C          64.4666   87.6945   14.4625 C.3     1  UNL1        0.1340
     23 N          63.9321   88.7409   15.3947 N.ar    1  UNL1       -0.2884
     24 C          63.1595   88.4872   16.6552 C.ar    1  UNL1        0.1932
     25 N          62.8262   89.8143   17.2698 N.ar    1  UNL1       -0.1221
     26 N          63.3927   90.8883   16.3891 N.ar    1  UNL1       -0.1282
     27 C          64.0762   90.2250   15.2302 C.ar    1  UNL1        0.1670
     28 C          64.7802   90.9231   14.1046 C.ar    1  UNL1        0.0422
     29 C          64.0332   91.2639   12.8493 C.ar    1  UNL1        0.0219
     30 C          64.7371   91.9619   11.7236 C.ar    1  UNL1        0.0785
     31 N          66.1883   92.3192   11.8534 N.ar    1  UNL1       -0.2922
     32 C          66.8922   93.0173   10.7277 C.3     1  UNL1        0.1336
     33 C          66.9353   91.9784   13.1086 C.ar    1  UNL1        0.2611
     34 O          68.3864   92.3356   13.2383 O.2     1  UNL1       -0.2670
     35 C          66.2312   91.2803   14.2343 C.ar    1  UNL1        0.0638
@<TRIPOS>BOND
     1    22    23    1
     2    23    24   ar
     3    24    21    1
     4    21    20    1
     5    20    19    1
     6    19     1    1
     7     1     2    1
     8     2     3    1
     9     3     4    1
    10     4     5    1
    11     5     6    1
    12     6     7    1
    13     7    10    1
    14    10    11   ar
    15    11    12    1
    16    11    13   ar
    17    13    14   ar
    18    14    15    1
    19    14    16   ar
    20    16    17   ar
    21    17    18    1
    22     7     8    1
    23     8     9    1
    24    24    25   ar
    25    25    26   ar
    26    26    27   ar
    27    27    28    1
    28    28    29   ar
    29    29    30   ar
    30    30    31   ar
    31    31    32    1
    32    31    33   ar
    33    33    34    2
    34    33    35   ar
    35    27    23   ar
    36    35    28   ar
    37     9     2    1
    38     8     4    1
    39    17    10   ar
@<TRIPOS>MOLECULE
*****
 35 39 0 0 0
SMALL
GASTEIGER

@<TRIPOS>ATOM
      1 C          64.7096   84.1501   14.9265 C.3     1  UNL1        0.0731
      2 N          64.3294   85.5641   15.2524 N.3     1  UNL1       -0.2712
      3 C          63.6903   86.0341   16.5254 C.3     1  UNL1        0.0738
      4 C          63.4875   87.5168   16.4222 C.3     1  UNL1        0.0372
      5 C          62.9671   88.7236   17.1453 C.3     1  UNL1        0.0245
      6 C          63.1592   89.9158   16.2554 C.3     1  UNL1        0.0910
      7 N          63.7983   89.4457   14.9823 N.pl3   1  UNL1       -0.3042
      8 C          64.0012   87.9630   15.0855 C.3     1  UNL1        0.0902
      9 C          64.5215   86.7562   14.3624 C.3     1  UNL1        0.0921
     10 C          64.1694   90.3070   13.8116 C.ar    1  UNL1        0.1036
     11 C          65.3650   91.2090   13.8933 C.ar    1  UNL1        0.1578
     12 F          66.1897   91.2498   15.1457 F       1  UNL1       -0.2027
     13 C          65.7361   92.0704   12.7227 C.ar    1  UNL1        0.0607
     14 C          64.9115   92.0296   11.4703 C.ar    1  UNL1        0.1447
     15 F          65.2826   92.8910   10.2997 F       1  UNL1       -0.2040
     16 C          63.7158   91.1275   11.3886 C.ar    1  UNL1        0.0607
     17 C          63.3447   90.2662   12.5592 C.ar    1  UNL1        0.1578
     18 F          62.1491   89.3642   12.4776 F       1  UNL1       -0.2027
     19 C          63.6664   83.0723   14.9336 C.3     1  UNL1        0.0294
     20 C          63.3200   82.3552   13.6624 C.3     1  UNL1        0.0666
     21 S          64.2392   82.4385   12.4800 S.3     1  UNL1       -0.0756
     22 C          62.1564   84.9507   12.4747 C.3     1  UNL1        0.1340
     23 N          62.8960   84.4161   11.2843 N.ar    1  UNL1       -0.2884
     24 C          63.8534   83.2614   11.2867 C.ar    1  UNL1        0.1932
     25 N          64.3572   83.0739    9.8863 N.ar    1  UNL1       -0.1221
     26 N          63.7112   84.1129    9.0184 N.ar    1  UNL1       -0.1282
     27 C          62.8081   84.9424    9.8823 C.ar    1  UNL1        0.1670
     28 C          61.9652   86.0958    9.4247 C.ar    1  UNL1        0.0422
     29 C          62.3425   87.4973    9.8034 C.ar    1  UNL1        0.0219
     30 C          61.4996   88.6506    9.3458 C.ar    1  UNL1        0.0785
     31 N          60.2794   88.4022    8.5095 N.ar    1  UNL1       -0.2922
     32 C          59.4364   89.5555    8.0518 C.3     1  UNL1        0.1336
     33 C          59.9020   87.0007    8.1308 C.ar    1  UNL1        0.2611
     34 O          58.6818   86.7525    7.2945 O.2     1  UNL1       -0.2670
     35 C          60.7450   85.8475    8.5884 C.ar    1  UNL1        0.0638
@<TRIPOS>BOND
     1    22    23    1
     2    23    24   ar
     3    24    21    1
     4    21    20    1
     5    20    19    1
     6    19     1    1
     7     1     2    1
     8     2     3    1
     9     3     4    1
    10     4     5    1
    11     5     6    1
    12     6     7    1
    13     7    10    1
    14    10    11   ar
    15    11    12    1
    16    11    13   ar
    17    13    14   ar
    18    14    15    1
    19    14    16   ar
    20    16    17   ar
    21    17    18    1
    22     7     8    1
    23     8     9    1
    24    24    25   ar
    25    25    26   ar
    26    26    27   ar
    27    27    28    1
    28    28    29   ar
    29    29    30   ar
    30    30    31   ar
    31    31    32    1
    32    31    33   ar
    33    33    34    2
    34    33    35   ar
    35    27    23   ar
    36    35    28   ar
    37     9     2    1
    38     8     4    1
    39    17    10   ar
@<TRIPOS>MOLECULE
*****
 35 39 0 0 0
SMALL
GASTEIGER

@<TRIPOS>ATOM
      1 C          64.4589   84.2582   15.0961 C.3     1  UNL1        0.0731
      2 N          64.1495   85.6951   15.3954 N.3     1  UNL1       -0.2712
      3 C          63.5405   86.2206   16.6615 C.3     1  UNL1        0.0738
      4 C          63.4094   87.7090   16.5297 C.3     1  UNL1        0.0372
      5 C          62.9520   88.9538   17.2307 C.3     1  UNL1        0.0245
      6 C          63.1971   90.1174   16.3164 C.3     1  UNL1        0.0910
      7 N          63.8061   89.5918   15.0503 N.pl3   1  UNL1       -0.3042
      8 C          63.9373   88.1034   15.1821 C.3     1  UNL1        0.0902
      9 C          64.3947   86.8587   14.4811 C.3     1  UNL1        0.0921
     10 C          64.2126   90.4109   13.8612 C.ar    1  UNL1        0.1036
     11 C          63.3991   90.3599   12.6020 C.ar    1  UNL1        0.1578
     12 F          62.1792   89.4899   12.5318 F       1  UNL1       -0.2027
     13 C          63.8056   91.1790   11.4129 C.ar    1  UNL1        0.0607
     14 C          65.0254   92.0490   11.4830 C.ar    1  UNL1        0.1447
     15 F          65.4319   92.8680   10.2939 F       1  UNL1       -0.2040
     16 C          65.8389   92.0999   12.7423 C.ar    1  UNL1        0.0607
     17 C          65.4325   91.2809   13.9314 C.ar    1  UNL1        0.1578
     18 F          66.2459   91.3318   15.1906 F       1  UNL1       -0.2027
     19 C          63.3433   83.2868   14.8476 C.3     1  UNL1        0.0294
     20 C          63.2537   82.5674   13.5344 C.3     1  UNL1        0.0666
     21 S          64.2373   82.8720   12.4437 S.3     1  UNL1       -0.0756
     22 C          62.1027   85.3332   12.2565 C.3     1  UNL1        0.1340
     23 N          62.7956   84.6771   11.0992 N.ar    1  UNL1       -0.2884
     24 C          63.7768   83.5458   11.1852 C.ar    1  UNL1        0.1932
     25 N          64.2167   83.2067    9.7918 N.ar    1  UNL1       -0.1221
     26 N          63.5074   84.1284    8.8446 N.ar    1  UNL1       -0.1282
     27 C          62.6291   85.0372    9.6525 C.ar    1  UNL1        0.1670
     28 C          61.7403   86.1165    9.1092 C.ar    1  UNL1        0.0422
     29 C          60.7741   85.8071    8.0044 C.ar    1  UNL1        0.0219
     30 C          59.8853   86.8864    7.4611 C.ar    1  UNL1        0.0785
     31 N          59.9628   88.2752    8.0227 N.ar    1  UNL1       -0.2922
     32 C          59.0741   89.3545    7.4794 C.3     1  UNL1        0.1336
     33 C          60.9291   88.5846    9.1275 C.ar    1  UNL1        0.2611
     34 O          61.0065   89.9734    9.6891 O.2     1  UNL1       -0.2670
     35 C          61.8178   87.5052    9.6708 C.ar    1  UNL1        0.0638
@<TRIPOS>BOND
     1    22    23    1
     2    23    24   ar
     3    24    21    1
     4    21    20    1
     5    20    19    1
     6    19     1    1
     7     1     2    1
     8     2     3    1
     9     3     4    1
    10     4     5    1
    11     5     6    1
    12     6     7    1
    13     7    10    1
    14    10    11   ar
    15    11    12    1
    16    11    13   ar
    17    13    14   ar
    18    14    15    1
    19    14    16   ar
    20    16    17   ar
    21    17    18    1
    22     7     8    1
    23     8     9    1
    24    24    25   ar
    25    25    26   ar
    26    26    27   ar
    27    27    28    1
    28    28    29   ar
    29    29    30   ar
    30    30    31   ar
    31    31    32    1
    32    31    33   ar
    33    33    34    2
    34    33    35   ar
    35    27    23   ar
    36    35    28   ar
    37     9     2    1
    38     8     4    1
    39    17    10   ar
@<TRIPOS>MOLECULE
*****
 35 39 0 0 0
SMALL
GASTEIGER

@<TRIPOS>ATOM
      1 C          63.9742   82.5150   13.1108 C.3     1  UNL1        0.0731
      2 N          63.6148   83.3690   11.9312 N.3     1  UNL1       -0.2712
      3 C          63.9192   83.0617   10.4949 C.3     1  UNL1        0.0738
      4 C          63.3804   84.1830    9.6568 C.3     1  UNL1        0.0372
      5 C          63.2355   84.6861    8.2511 C.3     1  UNL1        0.0245
      6 C          62.5085   85.9973    8.3006 C.3     1  UNL1        0.0910
      7 N          62.2042   86.3045    9.7370 N.pl3   1  UNL1       -0.3042
      8 C          62.7430   85.1833   10.5751 C.3     1  UNL1        0.0902
      9 C          62.8879   84.6802   11.9807 C.3     1  UNL1        0.0921
     10 C          61.4869   87.5197   10.2458 C.ar    1  UNL1        0.1036
     11 C          60.1654   87.9128    9.6551 C.ar    1  UNL1        0.1578
     12 F          59.5611   87.0908    8.5554 F       1  UNL1       -0.2027
     13 C          59.4481   89.1280   10.1639 C.ar    1  UNL1        0.0607
     14 C          60.0524   89.9500   11.2635 C.ar    1  UNL1        0.1447
     15 F          59.3351   91.1652   11.7723 F       1  UNL1       -0.2040
     16 C          61.3739   89.5569   11.8543 C.ar    1  UNL1        0.0607
     17 C          62.0912   88.3417   11.3455 C.ar    1  UNL1        0.1578
     18 F          63.4127   87.9486   11.9362 F       1  UNL1       -0.2027
     19 C          62.9217   82.1341   14.1094 C.3     1  UNL1        0.0294
     20 C          62.2006   83.1985   14.8822 C.3     1  UNL1        0.0666
     21 S          62.8569   83.8377   16.0699 S.3     1  UNL1       -0.0756
     22 C          64.8157   86.0669   14.7120 C.3     1  UNL1        0.1340
     23 N          63.6717   86.3471   15.6409 N.ar    1  UNL1       -0.2884
     24 C          62.7714   85.3225   16.2651 C.ar    1  UNL1        0.1932
     25 N          61.7705   86.0434   17.1187 N.ar    1  UNL1       -0.1221
     26 N          62.0523   87.5135   17.0221 N.ar    1  UNL1       -0.1282
     27 C          63.2273   87.7013   16.1088 C.ar    1  UNL1        0.1670
     28 C          63.8488   89.0129   15.7299 C.ar    1  UNL1        0.0422
     29 C          64.6775   89.1181   14.4840 C.ar    1  UNL1        0.0219
     30 C          65.2989   90.4297   14.1052 C.ar    1  UNL1        0.0785
     31 N          65.0916   91.6361   14.9722 N.ar    1  UNL1       -0.2922
     32 C          65.7131   92.9476   14.5934 C.3     1  UNL1        0.1336
     33 C          64.2629   91.5309   16.2181 C.ar    1  UNL1        0.2611
     34 O          64.0556   92.7373   17.0851 O.2     1  UNL1       -0.2670
     35 C          63.6415   90.2192   16.5969 C.ar    1  UNL1        0.0638
@<TRIPOS>BOND
     1    22    23    1
     2    23    24   ar
     3    24    21    1
     4    21    20    1
     5    20    19    1
     6    19     1    1
     7     1     2    1
     8     2     3    1
     9     3     4    1
    10     4     5    1
    11     5     6    1
    12     6     7    1
    13     7    10    1
    14    10    11   ar
    15    11    12    1
    16    11    13   ar
    17    13    14   ar
    18    14    15    1
    19    14    16   ar
    20    16    17   ar
    21    17    18    1
    22     7     8    1
    23     8     9    1
    24    24    25   ar
    25    25    26   ar
    26    26    27   ar
    27    27    28    1
    28    28    29   ar
    29    29    30   ar
    30    30    31   ar
    31    31    32    1
    32    31    33   ar
    33    33    34    2
    34    33    35   ar
    35    27    23   ar
    36    35    28   ar
    37     9     2    1
    38     8     4    1
    39    17    10   ar
@<TRIPOS>MOLECULE
*****
 35 39 0 0 0
SMALL
GASTEIGER

@<TRIPOS>ATOM
      1 C          61.6303   90.1892   10.9761 C.3     1  UNL1        0.0731
      2 N          62.8780   90.8346   11.5020 N.3     1  UNL1       -0.2712
      3 C          63.5007   90.5864   12.8439 C.3     1  UNL1        0.0738
      4 C          64.7297   91.4399   12.9496 C.3     1  UNL1        0.0372
      5 C          65.8741   91.8140   13.8442 C.3     1  UNL1        0.0245
      6 C          66.7183   92.8208   13.1206 C.3     1  UNL1        0.0910
      7 N          66.0956   93.0689   11.7786 N.pl3   1  UNL1       -0.3042
      8 C          64.8666   92.2155   11.6730 C.3     1  UNL1        0.0902
      9 C          63.7222   91.8414   10.7783 C.3     1  UNL1        0.0921
     10 C          66.6114   94.0060   10.7270 C.ar    1  UNL1        0.1036
     11 C          67.3251   93.4639    9.5242 C.ar    1  UNL1        0.1578
     12 F          67.5230   91.9847    9.3730 F       1  UNL1       -0.2027
     13 C          67.8408   94.4010    8.4726 C.ar    1  UNL1        0.0607
     14 C          67.6429   95.8801    8.6238 C.ar    1  UNL1        0.1447
     15 F          68.1587   96.8172    7.5722 F       1  UNL1       -0.2040
     16 C          66.9292   96.4223    9.8267 C.ar    1  UNL1        0.0607
     17 C          66.4134   95.4852   10.8783 C.ar    1  UNL1        0.1578
     18 F          65.6998   96.0273   12.0811 F       1  UNL1       -0.2027
     19 C          61.5145   89.8584    9.5176 C.3     1  UNL1        0.0294
     20 C          60.2169   89.3474    8.9651 C.3     1  UNL1        0.0666
     21 S          60.1234   87.9425    8.4480 S.3     1  UNL1       -0.0756
     22 C          60.5456   87.0762   11.5658 C.3     1  UNL1        0.1340
     23 N          61.2643   86.4954   10.3843 N.ar    1  UNL1       -0.2884
     24 C          61.0703   86.8936    8.9512 C.ar    1  UNL1        0.1932
     25 N          61.9893   86.0587    8.1095 N.ar    1  UNL1       -0.1221
     26 N          62.7514   85.1445    9.0225 N.ar    1  UNL1       -0.1282
     27 C          62.3034   85.4143   10.4284 C.ar    1  UNL1        0.1670
     28 C          62.8061   84.7244   11.6618 C.ar    1  UNL1        0.0422
     29 C          63.3250   85.5321   12.8143 C.ar    1  UNL1        0.0219
     30 C          63.8277   84.8421   14.0477 C.ar    1  UNL1        0.0785
     31 N          63.8114   83.3444   14.1285 N.ar    1  UNL1       -0.2922
     32 C          64.3141   82.6544   15.3619 C.3     1  UNL1        0.1336
     33 C          63.2925   82.5366   12.9760 C.ar    1  UNL1        0.2611
     34 O          63.2763   81.0389   13.0569 O.2     1  UNL1       -0.2670
     35 C          62.7898   83.2267   11.7426 C.ar    1  UNL1        0.0638
@<TRIPOS>BOND
     1    22    23    1
     2    23    24   ar
     3    24    21    1
     4    21    20    1
     5    20    19    1
     6    19     1    1
     7     1     2    1
     8     2     3    1
     9     3     4    1
    10     4     5    1
    11     5     6    1
    12     6     7    1
    13     7    10    1
    14    10    11   ar
    15    11    12    1
    16    11    13   ar
    17    13    14   ar
    18    14    15    1
    19    14    16   ar
    20    16    17   ar
    21    17    18    1
    22     7     8    1
    23     8     9    1
    24    24    25   ar
    25    25    26   ar
    26    26    27   ar
    27    27    28    1
    28    28    29   ar
    29    29    30   ar
    30    30    31   ar
    31    31    32    1
    32    31    33   ar
    33    33    34    2
    34    33    35   ar
    35    27    23   ar
    36    35    28   ar
    37     9     2    1
    38     8     4    1
    39    17    10   ar
@<TRIPOS>MOLECULE
*****
 35 39 0 0 0
SMALL
GASTEIGER

@<TRIPOS>ATOM
      1 C          58.7123   92.0808    4.7852 C.3     1  UNL1        0.0731
      2 N          59.8537   92.2880    3.8342 N.3     1  UNL1       -0.2712
      3 C          61.2835   91.9044    4.0759 C.3     1  UNL1        0.0738
      4 C          62.0790   92.2946    2.8656 C.3     1  UNL1        0.0372
      5 C          63.4544   92.2986    2.2670 C.3     1  UNL1        0.0245
      6 C          63.3663   92.9259    0.9072 C.3     1  UNL1        0.0910
      7 N          61.9364   93.3095    0.6656 N.pl3   1  UNL1       -0.3042
      8 C          61.1409   92.9194    1.8759 C.3     1  UNL1        0.0902
      9 C          59.7655   92.9153    2.4745 C.3     1  UNL1        0.0921
     10 C          61.3968   93.9678   -0.5696 C.ar    1  UNL1        0.1036
     11 C          60.3125   93.3004   -1.3624 C.ar    1  UNL1        0.1578
     12 F          59.7676   91.9746   -0.9201 F       1  UNL1       -0.2027
     13 C          59.7729   93.9586   -2.5976 C.ar    1  UNL1        0.0607
     14 C          60.3177   95.2843   -3.0399 C.ar    1  UNL1        0.1447
     15 F          59.7782   95.9426   -4.2750 F       1  UNL1       -0.2040
     16 C          61.4022   95.9518   -2.2470 C.ar    1  UNL1        0.0607
     17 C          61.9417   95.2936   -1.0119 C.ar    1  UNL1        0.1578
     18 F          63.0261   95.9610   -0.2190 F       1  UNL1       -0.2027
     19 C          58.4232   90.7105    5.3226 C.3     1  UNL1        0.0294
     20 C          59.4722   89.9735    6.1015 C.3     1  UNL1        0.0666
     21 S          59.0689   88.9422    7.1132 S.3     1  UNL1       -0.0756
     22 C          60.0626   85.8767    7.6275 C.3     1  UNL1        0.1340
     23 N          60.5030   87.0870    8.3963 N.ar    1  UNL1       -0.2884
     24 C          60.0463   88.4961    8.1599 C.ar    1  UNL1        0.1932
     25 N          60.7386   89.3807    9.1540 N.ar    1  UNL1       -0.1221
     26 N          61.6232   88.5184   10.0047 N.ar    1  UNL1       -0.1282
     27 C          61.4777   87.1008    9.5365 C.ar    1  UNL1        0.1670
     28 C          62.1829   85.9066   10.1081 C.ar    1  UNL1        0.0422
     29 C          63.0317   85.0424    9.2235 C.ar    1  UNL1        0.0219
     30 C          63.7369   83.8482    9.7951 C.ar    1  UNL1        0.0785
     31 N          63.5933   83.5184   11.2514 N.ar    1  UNL1       -0.2922
     32 C          64.2985   82.3243   11.8230 C.3     1  UNL1        0.1336
     33 C          62.7445   84.3827   12.1360 C.ar    1  UNL1        0.2611
     34 O          62.6009   84.0528   13.5922 O.2     1  UNL1       -0.2670
     35 C          62.0393   85.5768   11.5643 C.ar    1  UNL1        0.0638
@<TRIPOS>BOND
     1    22    23    1
     2    23    24   ar
     3    24    21    1
     4    21    20    1
     5    20    19    1
     6    19     1    1
     7     1     2    1
     8     2     3    1
     9     3     4    1
    10     4     5    1
    11     5     6    1
    12     6     7    1
    13     7    10    1
    14    10    11   ar
    15    11    12    1
    16    11    13   ar
    17    13    14   ar
    18    14    15    1
    19    14    16   ar
    20    16    17   ar
    21    17    18    1
    22     7     8    1
    23     8     9    1
    24    24    25   ar
    25    25    26   ar
    26    26    27   ar
    27    27    28    1
    28    28    29   ar
    29    29    30   ar
    30    30    31   ar
    31    31    32    1
    32    31    33   ar
    33    33    34    2
    34    33    35   ar
    35    27    23   ar
    36    35    28   ar
    37     9     2    1
    38     8     4    1
    39    17    10   ar
