@<TRIPOS>MOLECULE
*****
 69 77 0 0 0
SMALL
GASTEIGER

@<TRIPOS>ATOM
      1 N          63.1622   96.6637   -5.1342 N.3     1  UNL1       -0.1862
      2 C          62.3348   96.7080   -6.3844 C.3     1  UNL1        0.1775
      3 C          60.8488   96.5185   -6.3075 C.2     1  UNL1        0.2452
      4 O          60.0213   96.5629   -7.5579 O.2     1  UNL1       -0.2732
      5 N          60.1903   96.2845   -4.9803 N.am    1  UNL1       -0.2541
      6 C          58.7043   96.0950   -4.9034 C.3     1  UNL1        0.1577
      7 C          58.0458   95.8610   -3.5762 C.2     1  UNL1        0.2445
      8 O          56.5598   95.6715   -3.4992 O.2     1  UNL1       -0.2731
      9 N          58.8732   95.8166   -2.3258 N.am    1  UNL1       -0.2705
     10 C          60.3592   96.0062   -2.4027 C.3     1  UNL1        0.1359
     11 C          61.0177   96.2401   -3.7300 C.3     1  UNL1        0.1908
     12 N          62.5037   96.4297   -3.8069 N.am    1  UNL1       -0.1863
     13 C          63.3312   96.3853   -2.5565 C.2     1  UNL1        0.3191
     14 O          62.6727   96.1514   -1.2293 O.2     1  UNL1       -0.2512
     15 N          64.8172   96.5749   -2.6335 N.am    1  UNL1       -0.2836
     16 H          65.2494   96.7284   -3.5046 H       1  UNL1        0.1513
     17 C          64.6482   96.8532   -5.2111 C.3     1  UNL1        0.1188
     18 C          65.1284   94.3136   -5.4754 C.2     1  UNL1       -0.0034
     19 C          65.5211   95.7416   -5.7134 C.2     1  UNL1       -0.0071
     20 C          57.8768   96.1394   -6.1537 C.3     1  UNL1        0.0556
     21 C          56.3796   96.1291   -6.0629 C.ar    1  UNL1       -0.0198
     22 C          55.6910   96.8549   -4.9454 C.ar    1  UNL1       -0.0011
     23 C          54.1937   96.8446   -4.8547 C.ar    1  UNL1        0.0363
     24 C          53.3852   96.1086   -5.8815 C.ar    1  UNL1        0.1337
     25 O          51.8879   96.0983   -5.7908 O.3     1  UNL1       -0.5055
     26 C          54.0738   95.3827   -6.9991 C.ar    1  UNL1        0.0363
     27 C          55.5710   95.3930   -7.0898 C.ar    1  UNL1       -0.0011
     28 H          51.4578   96.5517   -5.0927 H       1  UNL1        0.2922
     29 C          58.2147   95.5827   -0.9985 C.3     1  UNL1        0.1217
     30 C          58.3903   94.2694   -0.2952 C.ar    1  UNL1        0.0135
     31 C          57.8201   93.0169   -0.8920 C.ar    1  UNL1       -0.0012
     32 C          57.9956   91.7037   -0.1888 C.ar    1  UNL1       -0.0002
     33 C          58.7414   91.6429    1.1112 C.ar    1  UNL1        0.0016
     34 C          59.3117   92.8954    1.7080 C.ar    1  UNL1        0.0214
     35 C          60.0886   93.1440    2.9668 C.ar    1  UNL1        0.0722
     36 C          60.3931   94.6108    3.0415 C.ar    1  UNL1        0.0805
     37 N          59.8045   95.2688    1.8290 N.ar    1  UNL1       -0.3241
     38 C          59.8723   96.7303    1.4986 C.3     1  UNL1        0.1305
     39 C          59.1361   94.2086    1.0047 C.ar    1  UNL1        0.0577
     40 C          60.4903   92.1075    3.9741 C.2     1  UNL1        0.2510
     41 O          61.8970   91.5871    3.9944 O.2     1  UNL1       -0.2698
     42 N          59.4854   91.5915    4.9609 N.am    1  UNL1       -0.2791
     43 H          58.5622   91.9331    4.9476 H       1  UNL1        0.1552
     44 C          59.8871   90.5552    5.9682 C.ar    1  UNL1        0.0701
     45 C          61.0583   90.8024    6.8722 C.ar    1  UNL1        0.0191
     46 C          61.4600   89.7661    7.8795 C.ar    1  UNL1        0.0356
     47 C          60.6907   88.4826    7.9827 C.ar    1  UNL1        0.1318
     48 N          59.5195   88.2354    7.0787 N.ar    1  UNL1       -0.2279
     49 C          59.1178   89.2717    6.0714 C.ar    1  UNL1        0.1149
     50 N          61.0924   87.4462    8.9899 N.pl3   1  UNL1       -0.2932
     51 C          62.0241   86.3387    8.5958 C.3     1  UNL1        0.0935
     52 C          62.4258   85.3023    9.6029 C.3     1  UNL1        0.0375
     53 C          61.8959   85.3733   11.0044 C.3     1  UNL1        0.0610
     54 C          60.9642   86.4808   11.3987 C.3     1  UNL1        0.0375
     55 C          60.5624   87.5173   10.3914 C.3     1  UNL1        0.0935
     56 N          62.2976   84.3370   12.0116 N.3     1  UNL1       -0.2715
     57 C          62.1341   84.6125   13.4770 C.3     1  UNL1        0.0896
     58 C          62.5358   83.5761   14.4844 C.3     1  UNL1        0.0897
     59 N          63.1009   82.2643   14.0263 N.3     1  UNL1       -0.2691
     60 C          63.5026   81.2280   15.0335 C.3     1  UNL1        0.0897
     61 C          63.2644   81.9889   12.5608 C.3     1  UNL1        0.0897
     62 C          62.8627   83.0252   11.5535 C.3     1  UNL1        0.0896
     63 C          65.6446   96.5305   -1.3832 C.3     1  UNL1        0.1177
     64 C          65.2060   95.6869   -0.2230 C.ar    1  UNL1       -0.0025
     65 C          64.9945   96.3142    1.1229 C.ar    1  UNL1       -0.0026
     66 C          64.5558   95.4706    2.2830 C.ar    1  UNL1       -0.0003
     67 C          64.3287   93.9997    2.0972 C.ar    1  UNL1       -0.0000
     68 C          64.5402   93.3722    0.7512 C.ar    1  UNL1       -0.0003
     69 C          64.9789   94.2158   -0.4089 C.ar    1  UNL1       -0.0026
@<TRIPOS>BOND
     1    18    19    2
     2    19    17    1
     3    17     1    1
     4     1     2    1
     5     2     3    1
     6     3     4    2
     7     3     5   am
     8     5     6    1
     9     6    20    1
    10    20    21    1
    11    21    22   ar
    12    22    23   ar
    13    23    24   ar
    14    24    25    1
    15    24    26   ar
    16    26    27   ar
    17     6     7    1
    18     7     8    2
    19     7     9   am
    20     9    29    1
    21    29    30    1
    22    30    31   ar
    23    31    32   ar
    24    32    33   ar
    25    33    34   ar
    26    34    35   ar
    27    35    40    1
    28    40    41    2
    29    40    42   am
    30    42    44    1
    31    44    45   ar
    32    45    46   ar
    33    46    47   ar
    34    47    50    1
    35    50    51    1
    36    51    52    1
    37    52    53    1
    38    53    56    1
    39    56    57    1
    40    57    58    1
    41    58    59    1
    42    59    60    1
    43    59    61    1
    44    61    62    1
    45    53    54    1
    46    54    55    1
    47    47    48   ar
    48    48    49   ar
    49    35    36   ar
    50    36    37   ar
    51    37    38    1
    52    37    39   ar
    53     9    10    1
    54    11    10    1
    55    11    12    1
    56    12    13   am
    57    13    14    2
    58    13    15   am
    59    15    63    1
    60    63    64    1
    61    64    65   ar
    62    65    66   ar
    63    66    67   ar
    64    67    68   ar
    65    68    69   ar
    66    12     1    1
    67    69    64   ar
    68    11     5    1
    69    27    21   ar
    70    39    30   ar
    71    39    34   ar
    72    49    44   ar
    73    55    50    1
    74    62    56    1
    75    25    28    1
    76    42    43    1
    77    15    16    1
