@<TRIPOS>MOLECULE
*****
 36 40 0 0 0
SMALL
GASTEIGER

@<TRIPOS>ATOM
      1 N          65.2586   92.3666   12.0551 N.3     1  UNL1       -0.2641
      2 C          66.3203   92.7343   11.0613 C.3     1  UNL1        0.0981
      3 C          67.3622   91.7286   10.6701 C.3     1  UNL1        0.0224
      4 C          68.4239   92.0964    9.6764 C.3     1  UNL1        0.0065
      5 C          68.4438   93.4699    9.0739 C.3     1  UNL1        0.0277
      6 C          67.4020   94.4756    9.4651 C.ar    1  UNL1       -0.0073
      7 C          67.4218   95.8492    8.8625 C.ar    1  UNL1       -0.0015
      8 C          66.3800   96.8549    9.2537 C.ar    1  UNL1        0.0203
      9 C          65.3183   96.4871   10.2474 C.ar    1  UNL1        0.0985
     10 N          65.2984   95.1136   10.8500 N.ar    1  UNL1       -0.2471
     11 C          66.3402   94.1078   10.4588 C.ar    1  UNL1        0.0695
     12 C          63.8662   92.0630   11.5871 C.3     1  UNL1        0.0989
     13 C          62.5695   89.8118   11.6127 C.2     1  UNL1       -0.0122
     14 C          63.5576   90.7344   10.9629 C.2     1  UNL1       -0.0120
     15 C          62.2610   88.4833   10.9885 C.3     1  UNL1        0.0953
     16 N          62.3218   87.2335   11.8159 N.3     1  UNL1       -0.2900
     17 H          61.7410   87.3964   12.6384 H       1  UNL1        0.1239
     18 C          61.8847   85.9239   11.2297 C.3     1  UNL1        0.0960
     19 C          62.7746   84.7209   11.3346 C.ar    1  UNL1       -0.0033
     20 C          63.0499   84.1062   12.6749 C.ar    1  UNL1        0.0178
     21 C          63.9397   82.9033   12.7797 C.ar    1  UNL1        0.0986
     22 N          64.5543   82.3150   11.5443 N.ar    1  UNL1       -0.2423
     23 C          64.2789   82.9296   10.2041 C.ar    1  UNL1        0.0986
     24 C          63.3891   84.1325   10.0992 C.ar    1  UNL1        0.0178
     25 C          65.5893   92.3023   13.5167 C.3     1  UNL1        0.0888
     26 C          64.9188   91.2865   14.3935 C.3     1  UNL1        0.0748
     27 C          65.0719   89.8237   14.0988 C.3     1  UNL1        0.0432
     28 C          64.4014   88.8079   14.9756 C.ar    1  UNL1       -0.0234
     29 C          64.5545   87.3451   14.6810 C.ar    1  UNL1       -0.0045
     30 C          63.8840   86.3294   15.5577 C.ar    1  UNL1       -0.0003
     31 C          63.0605   86.7764   16.7290 C.ar    1  UNL1       -0.0003
     32 C          62.9075   88.2392   17.0237 C.ar    1  UNL1       -0.0032
     33 C          63.5779   89.2549   16.1469 C.ar    1  UNL1       -0.0103
     34 C          63.4249   90.7178   16.4415 C.3     1  UNL1        0.0953
     35 N          64.0953   91.7335   15.5648 N.3     1  UNL1       -0.2934
     36 H          64.7113   92.2807   16.1661 H       1  UNL1        0.1236
@<TRIPOS>BOND
     1    13    14    2
     2    14    12    1
     3    12     1    1
     4     1    25    1
     5    26    25    1
     6    26    27    1
     7    27    28    1
     8    28    29   ar
     9    29    30   ar
    10    30    31   ar
    11    31    32   ar
    12    32    33   ar
    13    33    34    1
    14    34    35    1
    15     2     1    1
    16     2     3    1
    17     3     4    1
    18     4     5    1
    19     5     6    1
    20     6     7   ar
    21     7     8   ar
    22     8     9   ar
    23     9    10   ar
    24    10    11   ar
    25    13    15    1
    26    15    16    1
    27    16    18    1
    28    18    19    1
    29    19    20   ar
    30    20    21   ar
    31    21    22   ar
    32    22    23   ar
    33    23    24   ar
    34    35    26    1
    35    11     2    1
    36    24    19   ar
    37    33    28   ar
    38    11     6   ar
    39    35    36    1
    40    16    17    1
@<TRIPOS>MOLECULE
*****
 36 40 0 0 0
SMALL
GASTEIGER

@<TRIPOS>ATOM
      1 N          63.5048   88.8465   14.0885 N.3     1  UNL1       -0.2641
      2 C          63.3680   89.5823   12.7886 C.3     1  UNL1        0.0981
      3 C          64.1588   90.8340   12.5484 C.3     1  UNL1        0.0224
      4 C          64.0220   91.5698   11.2485 C.3     1  UNL1        0.0065
      5 C          63.0944   91.0539   10.1887 C.3     1  UNL1        0.0277
      6 C          62.3036   89.8021   10.4288 C.ar    1  UNL1       -0.0073
      7 C          61.3759   89.2861    9.3689 C.ar    1  UNL1       -0.0015
      8 C          60.5851   88.0343    9.6090 C.ar    1  UNL1        0.0203
      9 C          60.7219   87.2985   10.9090 C.ar    1  UNL1        0.0985
     10 N          61.6495   87.8145   11.9688 N.ar    1  UNL1       -0.2471
     11 C          62.4404   89.0663   11.7287 C.ar    1  UNL1        0.0695
     12 C          62.7505   89.3138   15.2978 C.3     1  UNL1        0.0989
     13 C          64.1888   91.3896   15.9081 C.2     1  UNL1       -0.0122
     14 C          63.4358   90.1621   16.3278 C.2     1  UNL1       -0.0120
     15 C          64.8741   92.2378   16.9380 C.3     1  UNL1        0.0953
     16 N          66.0966   93.0249   16.5687 N.3     1  UNL1       -0.2900
     17 H          66.5577   93.2797   17.4422 H       1  UNL1        0.1239
     18 C          67.1451   92.4125   15.6881 C.3     1  UNL1        0.0960
     19 C          67.1375   92.6838   14.2128 C.ar    1  UNL1       -0.0033
     20 C          67.8766   91.7721   13.2788 C.ar    1  UNL1        0.0178
     21 C          67.8690   92.0434   11.8036 C.ar    1  UNL1        0.0986
     22 N          67.1223   93.2264   11.2624 N.ar    1  UNL1       -0.2423
     23 C          66.3832   94.1381   12.1965 C.ar    1  UNL1        0.0986
     24 C          66.3908   93.8668   13.6717 C.ar    1  UNL1        0.0178
     25 C          64.3959   87.6433   14.1791 C.3     1  UNL1        0.0888
     26 C          63.7967   86.2708   14.2649 C.3     1  UNL1        0.0748
     27 C          63.7685   85.3877   13.0529 C.3     1  UNL1        0.0432
     28 C          63.1692   84.0152   13.1387 C.ar    1  UNL1       -0.0234
     29 C          63.1410   83.1320   11.9266 C.ar    1  UNL1       -0.0045
     30 C          62.5417   81.7596   12.0125 C.ar    1  UNL1       -0.0003
     31 C          61.9707   81.2704   13.3104 C.ar    1  UNL1       -0.0003
     32 C          61.9989   82.1536   14.5224 C.ar    1  UNL1       -0.0032
     33 C          62.5981   83.5260   14.4366 C.ar    1  UNL1       -0.0103
     34 C          62.6264   84.4092   15.6487 C.3     1  UNL1        0.0953
     35 N          63.2256   85.7816   15.5629 N.3     1  UNL1       -0.2934
     36 H          63.9801   85.8169   16.2484 H       1  UNL1        0.1236
@<TRIPOS>BOND
     1    13    14    2
     2    14    12    1
     3    12     1    1
     4     1    25    1
     5    26    25    1
     6    26    27    1
     7    27    28    1
     8    28    29   ar
     9    29    30   ar
    10    30    31   ar
    11    31    32   ar
    12    32    33   ar
    13    33    34    1
    14    34    35    1
    15     2     1    1
    16     2     3    1
    17     3     4    1
    18     4     5    1
    19     5     6    1
    20     6     7   ar
    21     7     8   ar
    22     8     9   ar
    23     9    10   ar
    24    10    11   ar
    25    13    15    1
    26    15    16    1
    27    16    18    1
    28    18    19    1
    29    19    20   ar
    30    20    21   ar
    31    21    22   ar
    32    22    23   ar
    33    23    24   ar
    34    35    26    1
    35    11     2    1
    36    24    19   ar
    37    33    28   ar
    38    11     6   ar
    39    35    36    1
    40    16    17    1
@<TRIPOS>MOLECULE
*****
 36 40 0 0 0
SMALL
GASTEIGER

@<TRIPOS>ATOM
      1 N          64.2607   90.2098   14.9526 N.3     1  UNL1       -0.2641
      2 C          65.1791   91.3789   14.7528 C.3     1  UNL1        0.0981
      3 C          65.9827   91.9066   15.9041 C.3     1  UNL1        0.0224
      4 C          66.9010   93.0757   15.7043 C.3     1  UNL1        0.0065
      5 C          67.0157   93.7170   14.3532 C.3     1  UNL1        0.0277
      6 C          66.2120   93.1893   13.2019 C.ar    1  UNL1       -0.0073
      7 C          66.3267   93.8306   11.8507 C.ar    1  UNL1       -0.0015
      8 C          65.5230   93.3028   10.6994 C.ar    1  UNL1        0.0203
      9 C          64.6047   92.1337   10.8992 C.ar    1  UNL1        0.0985
     10 N          64.4900   91.4924   12.2503 N.ar    1  UNL1       -0.2471
     11 C          65.2937   92.0202   13.4017 C.ar    1  UNL1        0.0695
     12 C          63.3079   90.1939   16.1110 C.3     1  UNL1        0.0989
     13 C          63.1401   87.9024   17.3239 C.2     1  UNL1       -0.0122
     14 C          62.5380   88.9471   16.4318 C.2     1  UNL1       -0.0120
     15 C          62.3701   86.6558   17.6446 C.3     1  UNL1        0.0953
     16 N          62.3221   85.5287   16.6559 N.3     1  UNL1       -0.2900
     17 H          61.4902   85.6741   16.0839 H       1  UNL1        0.1239
     18 C          63.4656   85.3115   15.7099 C.3     1  UNL1        0.0960
     19 C          63.3741   84.2504   14.6536 C.ar    1  UNL1       -0.0033
     20 C          62.4275   83.0998   14.8264 C.ar    1  UNL1        0.0178
     21 C          62.3360   82.0388   13.7701 C.ar    1  UNL1        0.0986
     22 N          63.1912   82.1284   12.5410 N.ar    1  UNL1       -0.2423
     23 C          64.1378   83.2791   12.3682 C.ar    1  UNL1        0.0986
     24 C          64.2292   84.3401   13.4245 C.ar    1  UNL1        0.0178
     25 C          64.2952   89.0566   13.9940 C.3     1  UNL1        0.0888
     26 C          63.2053   88.8945   12.9762 C.3     1  UNL1        0.0748
     27 C          63.1920   87.6947   12.0762 C.3     1  UNL1        0.0432
     28 C          62.1021   87.5326   11.0583 C.ar    1  UNL1       -0.0234
     29 C          62.0889   86.3327   10.1583 C.ar    1  UNL1       -0.0045
     30 C          60.9990   86.1707    9.1405 C.ar    1  UNL1       -0.0003
     31 C          59.9224   87.2085    9.0228 C.ar    1  UNL1       -0.0003
     32 C          59.9356   88.4083    9.9229 C.ar    1  UNL1       -0.0032
     33 C          61.0255   88.5704   10.9406 C.ar    1  UNL1       -0.0103
     34 C          61.0388   89.7703   11.8408 C.3     1  UNL1        0.0953
     35 N          62.1287   89.9323   12.8585 N.3     1  UNL1       -0.2934
     36 H          61.6743   89.9899   13.7699 H       1  UNL1        0.1236
@<TRIPOS>BOND
     1    13    14    2
     2    14    12    1
     3    12     1    1
     4     1    25    1
     5    26    25    1
     6    26    27    1
     7    27    28    1
     8    28    29   ar
     9    29    30   ar
    10    30    31   ar
    11    31    32   ar
    12    32    33   ar
    13    33    34    1
    14    34    35    1
    15     2     1    1
    16     2     3    1
    17     3     4    1
    18     4     5    1
    19     5     6    1
    20     6     7   ar
    21     7     8   ar
    22     8     9   ar
    23     9    10   ar
    24    10    11   ar
    25    13    15    1
    26    15    16    1
    27    16    18    1
    28    18    19    1
    29    19    20   ar
    30    20    21   ar
    31    21    22   ar
    32    22    23   ar
    33    23    24   ar
    34    35    26    1
    35    11     2    1
    36    24    19   ar
    37    33    28   ar
    38    11     6   ar
    39    35    36    1
    40    16    17    1
@<TRIPOS>MOLECULE
*****
 36 40 0 0 0
SMALL
GASTEIGER

@<TRIPOS>ATOM
      1 N          62.9163   90.0385   13.0456 N.3     1  UNL1       -0.2641
      2 C          63.8366   91.0392   12.4119 C.3     1  UNL1        0.0981
      3 C          63.7788   91.2797   10.9325 C.3     1  UNL1        0.0224
      4 C          64.6991   92.2805   10.2988 C.3     1  UNL1        0.0065
      5 C          65.6771   93.0408   11.1445 C.3     1  UNL1        0.0277
      6 C          65.7349   92.8003   12.6240 C.ar    1  UNL1       -0.0073
      7 C          66.7130   93.5605   13.4698 C.ar    1  UNL1       -0.0015
      8 C          66.7708   93.3200   14.9493 C.ar    1  UNL1        0.0203
      9 C          65.8505   92.3193   15.5829 C.ar    1  UNL1        0.0985
     10 N          64.8724   91.5590   14.7372 N.ar    1  UNL1       -0.2471
     11 C          64.8146   91.7995   13.2576 C.ar    1  UNL1        0.0695
     12 C          63.3924   89.2076   14.2001 C.3     1  UNL1        0.0989
     13 C          64.3417   86.9279   15.0075 C.2     1  UNL1       -0.0122
     14 C          64.2283   87.9871   13.9515 C.2     1  UNL1       -0.0120
     15 C          65.1776   85.7075   14.7588 C.3     1  UNL1        0.0953
     16 N          64.6737   84.3563   15.1720 N.3     1  UNL1       -0.2900
     17 H          64.5901   84.3714   16.1885 H       1  UNL1        0.1239
     18 C          63.3678   83.8473   14.6378 C.3     1  UNL1        0.0960
     19 C          63.3417   83.0112   13.3926 C.ar    1  UNL1       -0.0033
     20 C          63.9303   83.5431   12.1196 C.ar    1  UNL1        0.0178
     21 C          63.9042   82.7070   10.8745 C.ar    1  UNL1        0.0986
     22 N          63.2893   81.3391   10.9024 N.ar    1  UNL1       -0.2423
     23 C          62.7006   80.8073   12.1754 C.ar    1  UNL1        0.0986
     24 C          62.7268   81.6433   13.4205 C.ar    1  UNL1        0.0178
     25 C          61.5199   89.8686   12.5247 C.3     1  UNL1        0.0888
     26 C          61.2675   89.0082   11.3222 C.3     1  UNL1        0.0748
     27 C          62.2392   87.9253   10.9574 C.3     1  UNL1        0.0432
     28 C          61.9867   87.0649    9.7549 C.ar    1  UNL1       -0.0234
     29 C          62.9584   85.9820    9.3901 C.ar    1  UNL1       -0.0045
     30 C          62.7059   85.1217    8.1876 C.ar    1  UNL1       -0.0003
     31 C          61.4817   85.3443    7.3498 C.ar    1  UNL1       -0.0003
     32 C          60.5100   86.4272    7.7146 C.ar    1  UNL1       -0.0032
     33 C          60.7625   87.2875    8.9171 C.ar    1  UNL1       -0.0103
     34 C          59.7908   88.3705    9.2819 C.3     1  UNL1        0.0953
     35 N          60.0433   89.2308   10.4844 N.3     1  UNL1       -0.2934
     36 H          59.2394   89.1172   11.1018 H       1  UNL1        0.1236
@<TRIPOS>BOND
     1    13    14    2
     2    14    12    1
     3    12     1    1
     4     1    25    1
     5    26    25    1
     6    26    27    1
     7    27    28    1
     8    28    29   ar
     9    29    30   ar
    10    30    31   ar
    11    31    32   ar
    12    32    33   ar
    13    33    34    1
    14    34    35    1
    15     2     1    1
    16     2     3    1
    17     3     4    1
    18     4     5    1
    19     5     6    1
    20     6     7   ar
    21     7     8   ar
    22     8     9   ar
    23     9    10   ar
    24    10    11   ar
    25    13    15    1
    26    15    16    1
    27    16    18    1
    28    18    19    1
    29    19    20   ar
    30    20    21   ar
    31    21    22   ar
    32    22    23   ar
    33    23    24   ar
    34    35    26    1
    35    11     2    1
    36    24    19   ar
    37    33    28   ar
    38    11     6   ar
    39    35    36    1
    40    16    17    1
@<TRIPOS>MOLECULE
*****
 36 40 0 0 0
SMALL
GASTEIGER

@<TRIPOS>ATOM
      1 N          63.3559   90.5974   13.0904 N.3     1  UNL1       -0.2641
      2 C          64.4552   91.5143   12.6423 C.3     1  UNL1        0.0981
      3 C          64.6236   91.8271   11.1850 C.3     1  UNL1        0.0224
      4 C          65.7229   92.7440   10.7368 C.3     1  UNL1        0.0065
      5 C          66.6538   93.3481   11.7460 C.3     1  UNL1        0.0277
      6 C          66.4854   93.0353   13.2033 C.ar    1  UNL1       -0.0073
      7 C          67.4163   93.6394   14.2125 C.ar    1  UNL1       -0.0015
      8 C          67.2479   93.3266   15.6698 C.ar    1  UNL1        0.0203
      9 C          66.1486   92.4097   16.1179 C.ar    1  UNL1        0.0985
     10 N          65.2177   91.8056   15.1088 N.ar    1  UNL1       -0.2471
     11 C          65.3861   92.1184   13.6514 C.ar    1  UNL1        0.0695
     12 C          63.5441   89.7387   14.3058 C.3     1  UNL1        0.0989
     13 C          64.0823   87.3565   15.1922 C.2     1  UNL1       -0.0122
     14 C          64.3262   88.4624   14.2085 C.2     1  UNL1       -0.0120
     15 C          64.8644   86.0803   15.0949 C.3     1  UNL1        0.0953
     16 N          64.3021   84.8109   15.6631 N.3     1  UNL1       -0.2900
     17 H          64.2331   84.9451   16.6718 H       1  UNL1        0.1239
     18 C          62.9663   84.3093   15.2006 C.3     1  UNL1        0.0960
     19 C          62.8803   83.3737   14.0313 C.ar    1  UNL1       -0.0033
     20 C          62.4280   81.9581   14.2351 C.ar    1  UNL1        0.0178
     21 C          62.3420   81.0226   13.0657 C.ar    1  UNL1        0.0986
     22 N          62.7082   81.5026   11.6926 N.ar    1  UNL1       -0.2423
     23 C          63.1605   82.9182   11.4888 C.ar    1  UNL1        0.0986
     24 C          63.2465   83.8537   12.6581 C.ar    1  UNL1        0.0178
     25 C          62.0683   90.5391   12.3232 C.3     1  UNL1        0.0888
     26 C          61.7850   89.3750   11.4206 C.3     1  UNL1        0.0748
     27 C          60.8367   89.5321   10.2691 C.3     1  UNL1        0.0432
     28 C          60.5534   88.3679    9.3665 C.ar    1  UNL1       -0.0234
     29 C          59.6051   88.5250    8.2150 C.ar    1  UNL1       -0.0045
     30 C          59.3219   87.3609    7.3126 C.ar    1  UNL1       -0.0003
     31 C          59.9869   86.0397    7.5616 C.ar    1  UNL1       -0.0003
     32 C          60.9352   85.8825    8.7131 C.ar    1  UNL1       -0.0032
     33 C          61.2184   87.0467    9.6156 C.ar    1  UNL1       -0.0103
     34 C          62.1668   86.8896   10.7672 C.3     1  UNL1        0.0953
     35 N          62.4500   88.0537   11.6696 N.3     1  UNL1       -0.2934
     36 H          63.4559   88.2184   11.6309 H       1  UNL1        0.1236
@<TRIPOS>BOND
     1    13    14    2
     2    14    12    1
     3    12     1    1
     4     1    25    1
     5    26    25    1
     6    26    27    1
     7    27    28    1
     8    28    29   ar
     9    29    30   ar
    10    30    31   ar
    11    31    32   ar
    12    32    33   ar
    13    33    34    1
    14    34    35    1
    15     2     1    1
    16     2     3    1
    17     3     4    1
    18     4     5    1
    19     5     6    1
    20     6     7   ar
    21     7     8   ar
    22     8     9   ar
    23     9    10   ar
    24    10    11   ar
    25    13    15    1
    26    15    16    1
    27    16    18    1
    28    18    19    1
    29    19    20   ar
    30    20    21   ar
    31    21    22   ar
    32    22    23   ar
    33    23    24   ar
    34    35    26    1
    35    11     2    1
    36    24    19   ar
    37    33    28   ar
    38    11     6   ar
    39    35    36    1
    40    16    17    1
@<TRIPOS>MOLECULE
*****
 36 40 0 0 0
SMALL
GASTEIGER

@<TRIPOS>ATOM
      1 N          64.0980   90.1258   13.9282 N.3     1  UNL1       -0.2641
      2 C          64.9928   91.3222   14.0619 C.3     1  UNL1        0.0981
      3 C          65.6032   91.6575   15.3904 C.3     1  UNL1        0.0224
      4 C          66.4980   92.8540   15.5241 C.3     1  UNL1        0.0065
      5 C          66.7823   93.7151   14.3293 C.3     1  UNL1        0.0277
      6 C          66.1719   93.3798   13.0009 C.ar    1  UNL1       -0.0073
      7 C          66.4562   94.2410   11.8060 C.ar    1  UNL1       -0.0015
      8 C          65.8457   93.9057   10.4775 C.ar    1  UNL1        0.0203
      9 C          64.9510   92.7093   10.3438 C.ar    1  UNL1        0.0985
     10 N          64.6666   91.8481   11.5386 N.ar    1  UNL1       -0.2471
     11 C          65.2771   92.1834   12.8672 C.ar    1  UNL1        0.0695
     12 C          64.6687   88.7445   14.0554 C.3     1  UNL1        0.0989
     13 C          64.5343   86.3342   15.0159 C.2     1  UNL1       -0.0122
     14 C          63.9572   87.7118   14.8786 C.2     1  UNL1       -0.0120
     15 C          63.8228   85.3016   15.8390 C.3     1  UNL1        0.0953
     16 N          62.4990   84.7620   15.3845 N.3     1  UNL1       -0.2900
     17 H          62.2334   85.2934   14.5554 H       1  UNL1        0.1239
     18 C          62.3620   83.3108   15.0310 C.3     1  UNL1        0.0960
     19 C          62.7092   82.8392   13.6500 C.ar    1  UNL1       -0.0033
     20 C          63.1915   83.8192   12.6220 C.ar    1  UNL1        0.0178
     21 C          63.5387   83.3476   11.2410 C.ar    1  UNL1        0.0986
     22 N          63.4036   81.8960   10.8881 N.ar    1  UNL1       -0.2423
     23 C          62.9213   80.9160   11.9161 C.ar    1  UNL1        0.0986
     24 C          62.5741   81.3876   13.2971 C.ar    1  UNL1        0.0178
     25 C          62.6325   90.3106   13.6673 C.3     1  UNL1        0.0888
     26 C          62.0255   89.7919   12.3975 C.3     1  UNL1        0.0748
     27 C          62.4675   88.4716   11.8395 C.3     1  UNL1        0.0432
     28 C          61.8605   87.9529   10.5696 C.ar    1  UNL1       -0.0234
     29 C          62.3025   86.6326   10.0117 C.ar    1  UNL1       -0.0045
     30 C          61.6955   86.1139    8.7419 C.ar    1  UNL1       -0.0003
     31 C          60.6464   86.9156    8.0300 C.ar    1  UNL1       -0.0003
     32 C          60.2044   88.2359    8.5880 C.ar    1  UNL1       -0.0032
     33 C          60.8114   88.7546    9.8578 C.ar    1  UNL1       -0.0103
     34 C          60.3693   90.0749   10.4158 C.3     1  UNL1        0.0953
     35 N          60.9764   90.5936   11.6856 N.3     1  UNL1       -0.2934
     36 H          60.2099   90.7273   12.3452 H       1  UNL1        0.1236
@<TRIPOS>BOND
     1    13    14    2
     2    14    12    1
     3    12     1    1
     4     1    25    1
     5    26    25    1
     6    26    27    1
     7    27    28    1
     8    28    29   ar
     9    29    30   ar
    10    30    31   ar
    11    31    32   ar
    12    32    33   ar
    13    33    34    1
    14    34    35    1
    15     2     1    1
    16     2     3    1
    17     3     4    1
    18     4     5    1
    19     5     6    1
    20     6     7   ar
    21     7     8   ar
    22     8     9   ar
    23     9    10   ar
    24    10    11   ar
    25    13    15    1
    26    15    16    1
    27    16    18    1
    28    18    19    1
    29    19    20   ar
    30    20    21   ar
    31    21    22   ar
    32    22    23   ar
    33    23    24   ar
    34    35    26    1
    35    11     2    1
    36    24    19   ar
    37    33    28   ar
    38    11     6   ar
    39    35    36    1
    40    16    17    1
@<TRIPOS>MOLECULE
*****
 36 40 0 0 0
SMALL
GASTEIGER

@<TRIPOS>ATOM
      1 N          61.0457   87.5973   10.3313 N.3     1  UNL1       -0.2641
      2 C          61.8858   86.4197    9.9345 C.3     1  UNL1        0.0981
      3 C          62.2069   86.1804    8.4890 C.3     1  UNL1        0.0224
      4 C          63.0470   85.0028    8.0922 C.3     1  UNL1        0.0065
      5 C          63.5660   84.0644    9.1409 C.3     1  UNL1        0.0277
      6 C          63.2450   84.3036   10.5865 C.ar    1  UNL1       -0.0073
      7 C          63.7641   83.3652   11.6353 C.ar    1  UNL1       -0.0015
      8 C          63.4430   83.6044   13.0809 C.ar    1  UNL1        0.0203
      9 C          62.6029   84.7820   13.4777 C.ar    1  UNL1        0.0985
     10 N          62.0838   85.7204   12.4289 N.ar    1  UNL1       -0.2471
     11 C          62.4049   85.4813   10.9833 C.ar    1  UNL1        0.0695
     12 C          59.8918   88.0193    9.4709 C.3     1  UNL1        0.0989
     13 C          59.1361   88.8952    7.1446 C.2     1  UNL1       -0.0122
     14 C          60.1298   88.8835    8.2681 C.2     1  UNL1       -0.0120
     15 C          59.3741   89.7594    5.9419 C.3     1  UNL1        0.0953
     16 N          59.0103   91.2142    5.9798 N.3     1  UNL1       -0.2900
     17 H          59.7451   91.6879    6.5053 H       1  UNL1        0.1239
     18 C          58.8328   91.9765    4.7003 C.3     1  UNL1        0.0960
     19 C          60.0109   92.2245    3.8053 C.ar    1  UNL1       -0.0033
     20 C          59.8676   93.1137    2.6060 C.ar    1  UNL1        0.0178
     21 C          61.0456   93.3616    1.7111 C.ar    1  UNL1        0.0986
     22 N          62.3669   92.7202    2.0156 N.ar    1  UNL1       -0.2423
     23 C          62.5102   91.8309    3.2150 C.ar    1  UNL1        0.0986
     24 C          61.3322   91.5830    4.1099 C.ar    1  UNL1        0.0178
     25 C          61.3595   88.3528   11.5885 C.3     1  UNL1        0.0888
     26 C          62.3676   89.4634   11.5643 C.3     1  UNL1        0.0748
     27 C          63.2432   89.7075   12.7575 C.3     1  UNL1        0.0432
     28 C          64.2513   90.8181   12.7333 C.ar    1  UNL1       -0.0234
     29 C          65.1269   91.0622   13.9264 C.ar    1  UNL1       -0.0045
     30 C          66.1350   92.1727   13.9022 C.ar    1  UNL1       -0.0003
     31 C          66.2674   93.0390   12.6849 C.ar    1  UNL1       -0.0003
     32 C          65.3918   92.7949   11.4917 C.ar    1  UNL1       -0.0032
     33 C          64.3837   91.6844   11.5159 C.ar    1  UNL1       -0.0103
     34 C          63.5081   91.4402   10.3228 C.3     1  UNL1        0.0953
     35 N          62.5000   90.3297   10.3470 N.3     1  UNL1       -0.2934
     36 H          62.7251   89.7107    9.5681 H       1  UNL1        0.1236
@<TRIPOS>BOND
     1    13    14    2
     2    14    12    1
     3    12     1    1
     4     1    25    1
     5    26    25    1
     6    26    27    1
     7    27    28    1
     8    28    29   ar
     9    29    30   ar
    10    30    31   ar
    11    31    32   ar
    12    32    33   ar
    13    33    34    1
    14    34    35    1
    15     2     1    1
    16     2     3    1
    17     3     4    1
    18     4     5    1
    19     5     6    1
    20     6     7   ar
    21     7     8   ar
    22     8     9   ar
    23     9    10   ar
    24    10    11   ar
    25    13    15    1
    26    15    16    1
    27    16    18    1
    28    18    19    1
    29    19    20   ar
    30    20    21   ar
    31    21    22   ar
    32    22    23   ar
    33    23    24   ar
    34    35    26    1
    35    11     2    1
    36    24    19   ar
    37    33    28   ar
    38    11     6   ar
    39    35    36    1
    40    16    17    1
@<TRIPOS>MOLECULE
*****
 36 40 0 0 0
SMALL
GASTEIGER

@<TRIPOS>ATOM
      1 N          63.1887   85.3261   12.9337 N.3     1  UNL1       -0.2641
      2 C          63.3725   84.1022   12.0861 C.3     1  UNL1        0.0981
      3 C          64.0216   84.2139   10.7384 C.3     1  UNL1        0.0224
      4 C          64.2053   82.9900    9.8908 C.3     1  UNL1        0.0065
      5 C          63.7401   81.6546   10.3908 C.3     1  UNL1        0.0277
      6 C          63.0910   81.5430   11.7385 C.ar    1  UNL1       -0.0073
      7 C          62.6257   80.2075   12.2386 C.ar    1  UNL1       -0.0015
      8 C          61.9767   80.0958   13.5862 C.ar    1  UNL1        0.0203
      9 C          61.7929   81.3197   14.4339 C.ar    1  UNL1        0.0985
     10 N          62.2581   82.6551   13.9338 N.ar    1  UNL1       -0.2471
     11 C          62.9072   82.7668   12.5861 C.ar    1  UNL1        0.0695
     12 C          64.3322   85.8517   13.7499 C.3     1  UNL1        0.0989
     13 C          64.1706   88.4123   14.1592 C.2     1  UNL1       -0.0122
     14 C          64.1193   87.0074   14.6822 C.2     1  UNL1       -0.0120
     15 C          63.9577   89.5679   15.0916 C.3     1  UNL1        0.0953
     16 N          63.4568   90.8781   14.5600 N.3     1  UNL1       -0.2900
     17 H          63.9733   91.6103   15.0472 H       1  UNL1        0.1239
     18 C          63.5564   91.1801   13.0941 C.3     1  UNL1        0.0960
     19 C          64.8149   91.7746   12.5346 C.ar    1  UNL1       -0.0033
     20 C          66.0179   91.9477   13.4137 C.ar    1  UNL1        0.0178
     21 C          67.2762   92.5422   12.8542 C.ar    1  UNL1        0.0986
     22 N          67.3316   92.9637   11.4157 N.ar    1  UNL1       -0.2423
     23 C          66.1286   92.7907   10.5367 C.ar    1  UNL1        0.0986
     24 C          64.8702   92.1961   11.0961 C.ar    1  UNL1        0.0178
     25 C          61.8615   86.0242   12.9652 C.3     1  UNL1        0.0888
     26 C          61.4325   86.8724   11.8048 C.3     1  UNL1        0.0748
     27 C          60.8198   86.2327   10.5943 C.3     1  UNL1        0.0432
     28 C          60.3908   87.0809    9.4338 C.ar    1  UNL1       -0.0234
     29 C          59.7781   86.4413    8.2233 C.ar    1  UNL1       -0.0045
     30 C          59.3491   87.2895    7.0629 C.ar    1  UNL1       -0.0003
     31 C          59.5328   88.7773    7.1131 C.ar    1  UNL1       -0.0003
     32 C          60.1455   89.4170    8.3236 C.ar    1  UNL1       -0.0032
     33 C          60.5745   88.5688    9.4840 C.ar    1  UNL1       -0.0103
     34 C          61.1872   89.2085   10.6946 C.3     1  UNL1        0.0953
     35 N          61.6162   88.3603   11.8549 N.3     1  UNL1       -0.2934
     36 H          61.1006   88.6933   12.6696 H       1  UNL1        0.1236
@<TRIPOS>BOND
     1    13    14    2
     2    14    12    1
     3    12     1    1
     4     1    25    1
     5    26    25    1
     6    26    27    1
     7    27    28    1
     8    28    29   ar
     9    29    30   ar
    10    30    31   ar
    11    31    32   ar
    12    32    33   ar
    13    33    34    1
    14    34    35    1
    15     2     1    1
    16     2     3    1
    17     3     4    1
    18     4     5    1
    19     5     6    1
    20     6     7   ar
    21     7     8   ar
    22     8     9   ar
    23     9    10   ar
    24    10    11   ar
    25    13    15    1
    26    15    16    1
    27    16    18    1
    28    18    19    1
    29    19    20   ar
    30    20    21   ar
    31    21    22   ar
    32    22    23   ar
    33    23    24   ar
    34    35    26    1
    35    11     2    1
    36    24    19   ar
    37    33    28   ar
    38    11     6   ar
    39    35    36    1
    40    16    17    1
@<TRIPOS>MOLECULE
*****
 36 40 0 0 0
SMALL
GASTEIGER

@<TRIPOS>ATOM
      1 N          63.7316   89.7913   13.5636 N.3     1  UNL1       -0.2641
      2 C          64.4281   90.9569   12.9263 C.3     1  UNL1        0.0981
      3 C          64.2138   91.2549   11.4719 C.3     1  UNL1        0.0224
      4 C          64.9104   92.4205   10.8346 C.3     1  UNL1        0.0065
      5 C          65.8213   93.2881   11.6517 C.3     1  UNL1        0.0277
      6 C          66.0356   92.9900   13.1060 C.ar    1  UNL1       -0.0073
      7 C          66.9465   93.8576   13.9232 C.ar    1  UNL1       -0.0015
      8 C          67.1608   93.5595   15.3775 C.ar    1  UNL1        0.0203
      9 C          66.4642   92.3939   16.0148 C.ar    1  UNL1        0.0985
     10 N          65.5534   91.5264   15.1978 N.ar    1  UNL1       -0.2471
     11 C          65.3390   91.8244   13.7433 C.ar    1  UNL1        0.0695
     12 C          62.2522   89.6151   13.3896 C.3     1  UNL1        0.0989
     13 C          60.7489   89.1974   11.3122 C.2     1  UNL1       -0.0122
     14 C          61.5766   90.1252   12.1513 C.2     1  UNL1       -0.0120
     15 C          60.0733   89.7075   10.0739 C.3     1  UNL1        0.0953
     16 N          59.7576   88.7658    8.9497 N.3     1  UNL1       -0.2900
     17 H          60.4514   88.9338    8.2212 H       1  UNL1        0.1239
     18 C          59.7361   87.2861    9.1944 C.3     1  UNL1        0.0960
     19 C          60.7680   86.4051    8.5547 C.ar    1  UNL1       -0.0033
     20 C          62.1108   86.2319    9.2003 C.ar    1  UNL1        0.0178
     21 C          63.1425   85.3509    8.5605 C.ar    1  UNL1        0.0986
     22 N          62.8314   84.6431    7.2751 N.ar    1  UNL1       -0.2423
     23 C          61.4886   84.8163    6.6295 C.ar    1  UNL1        0.0986
     24 C          60.4569   85.6973    7.2693 C.ar    1  UNL1        0.0178
     25 C          64.5144   88.8018   14.3748 C.3     1  UNL1        0.0888
     26 C          64.0215   87.3923   14.5181 C.3     1  UNL1        0.0748
     27 C          63.8461   86.5318   13.3021 C.3     1  UNL1        0.0432
     28 C          63.3532   85.1223   13.4454 C.ar    1  UNL1       -0.0234
     29 C          63.1778   84.2618   12.2294 C.ar    1  UNL1       -0.0045
     30 C          62.6849   82.8524   12.3728 C.ar    1  UNL1       -0.0003
     31 C          62.3675   82.3035   13.7322 C.ar    1  UNL1       -0.0003
     32 C          62.5429   83.1640   14.9482 C.ar    1  UNL1       -0.0032
     33 C          63.0357   84.5734   14.8048 C.ar    1  UNL1       -0.0103
     34 C          63.2112   85.4340   16.0209 C.3     1  UNL1        0.0953
     35 N          63.7040   86.8434   15.8775 N.3     1  UNL1       -0.2934
     36 H          64.5582   86.9143   16.4305 H       1  UNL1        0.1236
@<TRIPOS>BOND
     1    13    14    2
     2    14    12    1
     3    12     1    1
     4     1    25    1
     5    26    25    1
     6    26    27    1
     7    27    28    1
     8    28    29   ar
     9    29    30   ar
    10    30    31   ar
    11    31    32   ar
    12    32    33   ar
    13    33    34    1
    14    34    35    1
    15     2     1    1
    16     2     3    1
    17     3     4    1
    18     4     5    1
    19     5     6    1
    20     6     7   ar
    21     7     8   ar
    22     8     9   ar
    23     9    10   ar
    24    10    11   ar
    25    13    15    1
    26    15    16    1
    27    16    18    1
    28    18    19    1
    29    19    20   ar
    30    20    21   ar
    31    21    22   ar
    32    22    23   ar
    33    23    24   ar
    34    35    26    1
    35    11     2    1
    36    24    19   ar
    37    33    28   ar
    38    11     6   ar
    39    35    36    1
    40    16    17    1
