@<TRIPOS>MOLECULE
*****
 27 26 0 0 0
SMALL
GASTEIGER

@<TRIPOS>ATOM
      1 C          62.1758   86.1126    8.5641 C.2     1  UNL1       -0.0307
      2 C          63.2234   85.0522    8.7313 C.2     1  UNL1       -0.0307
      3 C          61.1924   86.3758    9.6657 C.3     1  UNL1        0.0258
      4 C          59.9785   87.2167    9.4025 C.3     1  UNL1        0.0064
      5 C          60.1126   88.5187    8.6697 C.3     1  UNL1        0.0216
      6 C          60.2522   89.8001    9.4367 C.3     1  UNL1        0.0898
      7 C          61.6315   89.8675   11.6374 C.2     1  UNL1        0.2995
      8 O          60.4548   89.3233   12.3917 O.2     1  UNL1       -0.2652
      9 N          61.5303   90.1059   10.1599 N.am    1  UNL1       -0.2971
     10 H          62.3027   90.4631    9.6649 H       1  UNL1        0.1499
     11 C          64.5421   89.7258   14.3316 C.3     1  UNL1        0.1111
     12 N          63.2640   89.4201   13.6084 N.am    1  UNL1       -0.2954
     13 C          62.9097   90.1733   12.3606 C.2     1  UNL1        0.2996
     14 O          63.8334   91.2322   11.8359 O.2     1  UNL1       -0.2652
     15 H          62.6577   88.7251   13.9528 H       1  UNL1        0.1499
     16 C          63.2877   84.2550   10.0003 C.3     1  UNL1        0.0257
     17 C          64.3194   83.1776   10.1576 C.3     1  UNL1        0.0047
     18 C          64.1951   82.1765   11.2679 C.3     1  UNL1        0.0003
     19 C          62.8389   81.7782   11.7701 C.3     1  UNL1        0.0000
     20 C          62.6983   81.1280   13.1145 C.3     1  UNL1        0.0000
     21 C          61.9024   81.8008   14.1934 C.3     1  UNL1        0.0000
     22 C          62.4409   83.0273   14.8686 C.3     1  UNL1        0.0004
     23 C          63.9198   83.2750   14.9052 C.3     1  UNL1        0.0059
     24 C          64.5081   84.4184   14.1330 C.3     1  UNL1        0.0417
     25 C          63.8881   85.7814   14.2218 C.2     1  UNL1        0.0503
     26 O          63.8071   86.4837   15.5447 O.co2   1  UNL1       -0.5492
     27 O          63.3491   86.4421   12.9878 O.co2   1  UNL1       -0.5492
@<TRIPOS>UNITY_ATOM_ATTR
26 1
charge -1
@<TRIPOS>BOND
     1    11    12    1
     2    12    13   am
     3    13    14    2
     4    13     7    1
     5     7     8    2
     6     7     9   am
     7     9     6    1
     8     6     5    1
     9     5     4    1
    10     4     3    1
    11     3     1    1
    12     1     2    2
    13     2    16    1
    14    16    17    1
    15    17    18    1
    16    18    19    1
    17    19    20    1
    18    20    21    1
    19    21    22    1
    20    22    23    1
    21    23    24    1
    22    24    25    1
    23    25    26   ar
    24    25    27   ar
    25    12    15    1
    26     9    10    1
@<TRIPOS>MOLECULE
*****
 27 26 0 0 0
SMALL
GASTEIGER

@<TRIPOS>ATOM
      1 C          60.1049   87.4982    9.8307 C.2     1  UNL1       -0.0307
      2 C          61.1070   86.3849    9.7507 C.2     1  UNL1       -0.0307
      3 C          60.0654   88.3863   11.0388 C.3     1  UNL1        0.0258
      4 C          60.3444   89.8536   10.9005 C.3     1  UNL1        0.0064
      5 C          61.6867   90.3198   10.4198 C.3     1  UNL1        0.0216
      6 C          62.7509   90.6898   11.4101 C.3     1  UNL1        0.0898
      7 C          63.5428   90.8317   13.8805 C.2     1  UNL1        0.2995
      8 O          64.5811   91.8412   13.4897 O.2     1  UNL1       -0.2652
      9 N          62.6277   90.2560   12.8407 N.am    1  UNL1       -0.2971
     10 H          61.9462   89.5934   13.0972 H       1  UNL1        0.1499
     11 C          63.1360   88.5098   17.0732 C.3     1  UNL1        0.1111
     12 N          63.2592   88.9437   15.6427 N.am    1  UNL1       -0.2954
     13 C          63.4196   90.3978   15.3111 C.2     1  UNL1        0.2996
     14 O          63.4567   91.4180   16.4101 O.2     1  UNL1       -0.2652
     15 H          63.2348   88.2742   14.9213 H       1  UNL1        0.1499
     16 C          62.0696   86.1598   10.8788 C.3     1  UNL1        0.0257
     17 C          62.4232   84.7629   11.2956 C.3     1  UNL1        0.0047
     18 C          63.4629   83.9939   10.5355 C.3     1  UNL1        0.0003
     19 C          64.0402   82.7372   11.1164 C.3     1  UNL1        0.0000
     20 C          63.2389   81.4693   11.1064 C.3     1  UNL1        0.0000
     21 C          62.6571   80.9396   12.3834 C.3     1  UNL1        0.0000
     22 C          63.2112   81.3887   13.7031 C.3     1  UNL1        0.0004
     23 C          62.5806   82.5402   14.4285 C.3     1  UNL1        0.0059
     24 C          63.4316   83.4734   15.2377 C.3     1  UNL1        0.0417
     25 C          62.9948   84.8925   15.4509 C.2     1  UNL1        0.0503
     26 O          63.5246   85.9813   14.5657 O.co2   1  UNL1       -0.5492
     27 O          62.0281   85.2227   16.5493 O.co2   1  UNL1       -0.5492
@<TRIPOS>UNITY_ATOM_ATTR
26 1
charge -1
@<TRIPOS>BOND
     1    11    12    1
     2    12    13   am
     3    13    14    2
     4    13     7    1
     5     7     8    2
     6     7     9   am
     7     9     6    1
     8     6     5    1
     9     5     4    1
    10     4     3    1
    11     3     1    1
    12     1     2    2
    13     2    16    1
    14    16    17    1
    15    17    18    1
    16    18    19    1
    17    19    20    1
    18    20    21    1
    19    21    22    1
    20    22    23    1
    21    23    24    1
    22    24    25    1
    23    25    26   ar
    24    25    27   ar
    25    12    15    1
    26     9    10    1
@<TRIPOS>MOLECULE
*****
 27 26 0 0 0
SMALL
GASTEIGER

@<TRIPOS>ATOM
      1 C          59.1834   87.2215    7.9949 C.2     1  UNL1       -0.0307
      2 C          59.9802   85.9508    7.9732 C.2     1  UNL1       -0.0307
      3 C          59.8803   88.5456    7.8905 C.3     1  UNL1        0.0258
      4 C          60.1056   89.3737    9.1207 C.3     1  UNL1        0.0064
      5 C          60.2394   88.7084   10.4585 C.3     1  UNL1        0.0216
      6 C          60.3167   89.5393   11.7049 C.3     1  UNL1        0.0898
      7 C          62.7689   90.1782   12.2779 C.2     1  UNL1        0.2995
      8 O          63.0771   88.7384   12.5644 O.2     1  UNL1       -0.2652
      9 N          61.3887   90.5786   11.8482 N.am    1  UNL1       -0.2971
     10 H          61.1865   91.5236   11.6602 H       1  UNL1        0.1499
     11 C          65.5506   92.8499   11.3430 C.3     1  UNL1        0.1111
     12 N          64.4786   91.8106   11.1998 N.am    1  UNL1       -0.2954
     13 C          63.8410   91.2175   12.4211 C.2     1  UNL1        0.2996
     14 O          64.2754   91.6638   13.7857 O.2     1  UNL1       -0.2652
     15 H          64.1935   91.5177   10.3041 H       1  UNL1        0.1499
     16 C          61.4739   86.0042    7.8471 C.3     1  UNL1        0.0257
     17 C          62.3334   85.9277    9.0740 C.3     1  UNL1        0.0047
     18 C          61.7890   85.3238   10.3346 C.3     1  UNL1        0.0003
     19 C          62.7159   84.6594   11.3090 C.3     1  UNL1        0.0000
     20 C          63.7234   83.6598   10.8236 C.3     1  UNL1        0.0000
     21 C          63.9591   82.3964   11.5970 C.3     1  UNL1        0.0000
     22 C          62.8305   81.4349   11.8249 C.3     1  UNL1        0.0004
     23 C          62.5390   80.9351   13.2088 C.3     1  UNL1        0.0059
     24 C          61.8529   81.8280   14.1997 C.3     1  UNL1        0.0417
     25 C          62.5752   83.0144   14.7660 C.2     1  UNL1        0.0503
     26 O          61.8970   84.3514   14.8165 O.co2   1  UNL1       -0.5492
     27 O          63.9757   82.8640   15.2817 O.co2   1  UNL1       -0.5492
@<TRIPOS>UNITY_ATOM_ATTR
26 1
charge -1
@<TRIPOS>BOND
     1    11    12    1
     2    12    13   am
     3    13    14    2
     4    13     7    1
     5     7     8    2
     6     7     9   am
     7     9     6    1
     8     6     5    1
     9     5     4    1
    10     4     3    1
    11     3     1    1
    12     1     2    2
    13     2    16    1
    14    16    17    1
    15    17    18    1
    16    18    19    1
    17    19    20    1
    18    20    21    1
    19    21    22    1
    20    22    23    1
    21    23    24    1
    22    24    25    1
    23    25    26   ar
    24    25    27   ar
    25    12    15    1
    26     9    10    1
@<TRIPOS>MOLECULE
*****
 27 26 0 0 0
SMALL
GASTEIGER

@<TRIPOS>ATOM
      1 C          59.9880   88.9458    8.5763 C.2     1  UNL1       -0.0307
      2 C          59.7311   87.7036    7.7756 C.2     1  UNL1       -0.0307
      3 C          60.7482   88.8625    9.8666 C.3     1  UNL1        0.0258
      4 C          61.2642   90.1128   10.5152 C.3     1  UNL1        0.0064
      5 C          62.7250   90.4463   10.4445 C.3     1  UNL1        0.0216
      6 C          63.4267   91.0012   11.6486 C.3     1  UNL1        0.0898
      7 C          64.0192   90.6070   14.1473 C.2     1  UNL1        0.2995
      8 O          65.4088   91.1137   13.8978 O.2     1  UNL1       -0.2652
      9 N          63.0282   90.5507   13.0227 N.am    1  UNL1       -0.2971
     10 H          62.1161   90.2181   13.1865 H       1  UNL1        0.1499
     11 C          63.0185   88.2467   17.1768 C.3     1  UNL1        0.1111
     12 N          63.4170   88.6972   15.8027 N.am    1  UNL1       -0.2954
     13 C          63.6206   90.1565   15.5215 C.2     1  UNL1        0.2996
     14 O          63.4257   91.1652   16.6143 O.2     1  UNL1       -0.2652
     15 H          63.5450   88.0351   15.0854 H       1  UNL1        0.1499
     16 C          60.2346   86.3782    8.2652 C.3     1  UNL1        0.0257
     17 C          60.6937   85.3412    7.2835 C.3     1  UNL1        0.0047
     18 C          62.1533   85.0168    7.1628 C.3     1  UNL1        0.0003
     19 C          63.1049   85.4272    8.2472 C.3     1  UNL1        0.0000
     20 C          63.0403   84.7655    9.5917 C.3     1  UNL1        0.0000
     21 C          63.8470   83.5293    9.8588 C.3     1  UNL1        0.0000
     22 C          64.1678   83.1334   11.2697 C.3     1  UNL1        0.0004
     23 C          63.6220   83.9329   12.4155 C.3     1  UNL1        0.0059
     24 C          64.4651   84.1702   13.6333 C.3     1  UNL1        0.0417
     25 C          64.0668   85.2196   14.6283 C.2     1  UNL1        0.0503
     26 O          64.9594   86.4005   14.8707 O.co2   1  UNL1       -0.5492
     27 O          62.7760   85.0882   15.3809 O.co2   1  UNL1       -0.5492
@<TRIPOS>UNITY_ATOM_ATTR
26 1
charge -1
@<TRIPOS>BOND
     1    11    12    1
     2    12    13   am
     3    13    14    2
     4    13     7    1
     5     7     8    2
     6     7     9   am
     7     9     6    1
     8     6     5    1
     9     5     4    1
    10     4     3    1
    11     3     1    1
    12     1     2    2
    13     2    16    1
    14    16    17    1
    15    17    18    1
    16    18    19    1
    17    19    20    1
    18    20    21    1
    19    21    22    1
    20    22    23    1
    21    23    24    1
    22    24    25    1
    23    25    26   ar
    24    25    27   ar
    25    12    15    1
    26     9    10    1
@<TRIPOS>MOLECULE
*****
 27 26 0 0 0
SMALL
GASTEIGER

@<TRIPOS>ATOM
      1 C          60.3976   87.7366   10.4108 C.2     1  UNL1       -0.0307
      2 C          60.9169   86.3834   10.0245 C.2     1  UNL1       -0.0307
      3 C          60.8239   88.9514    9.6411 C.3     1  UNL1        0.0258
      4 C          62.0474   89.7124   10.0581 C.3     1  UNL1        0.0064
      5 C          62.7786   89.3288   11.3105 C.3     1  UNL1        0.0216
      6 C          62.4003   89.9531   12.6209 C.3     1  UNL1        0.0898
      7 C          63.5408   90.6707   14.8422 C.2     1  UNL1        0.2995
      8 O          62.7063   89.6753   15.5923 O.2     1  UNL1       -0.2652
      9 N          63.3878   90.8096   13.3565 N.am    1  UNL1       -0.2971
     10 H          63.9356   91.4629   12.8641 H       1  UNL1        0.1499
     11 C          66.9111   92.5420   15.7853 C.3     1  UNL1        0.1111
     12 N          65.9235   91.6855   15.0498 N.am    1  UNL1       -0.2954
     13 C          64.5284   91.5273   15.5778 C.2     1  UNL1        0.2996
     14 O          64.1209   92.2256   16.8412 O.2     1  UNL1       -0.2652
     15 H          66.1910   91.2272   14.2206 H       1  UNL1        0.1499
     16 C          61.8624   86.2450    8.8683 C.3     1  UNL1        0.0257
     17 C          62.9860   85.2533    8.9329 C.3     1  UNL1        0.0047
     18 C          63.0396   84.2523   10.0488 C.3     1  UNL1        0.0003
     19 C          64.1789   83.2800   10.1300 C.3     1  UNL1        0.0000
     20 C          64.2534   82.3052   11.2676 C.3     1  UNL1        0.0000
     21 C          63.0566   81.4733   11.6221 C.3     1  UNL1        0.0000
     22 C          62.3650   81.6765   12.9376 C.3     1  UNL1        0.0004
     23 C          63.0063   82.5196   13.9997 C.3     1  UNL1        0.0059
     24 C          62.5810   83.9463   14.1832 C.3     1  UNL1        0.0417
     25 C          63.5685   85.0560   13.9744 C.2     1  UNL1        0.0503
     26 O          64.8332   85.0959   14.7799 O.co2   1  UNL1       -0.5492
     27 O          63.2911   86.1257   12.9602 O.co2   1  UNL1       -0.5492
@<TRIPOS>UNITY_ATOM_ATTR
26 1
charge -1
@<TRIPOS>BOND
     1    11    12    1
     2    12    13   am
     3    13    14    2
     4    13     7    1
     5     7     8    2
     6     7     9   am
     7     9     6    1
     8     6     5    1
     9     5     4    1
    10     4     3    1
    11     3     1    1
    12     1     2    2
    13     2    16    1
    14    16    17    1
    15    17    18    1
    16    18    19    1
    17    19    20    1
    18    20    21    1
    19    21    22    1
    20    22    23    1
    21    23    24    1
    22    24    25    1
    23    25    26   ar
    24    25    27   ar
    25    12    15    1
    26     9    10    1
@<TRIPOS>MOLECULE
*****
 27 26 0 0 0
SMALL
GASTEIGER

@<TRIPOS>ATOM
      1 C          64.0721   83.2416   10.1287 C.2     1  UNL1       -0.0307
      2 C          63.3040   84.4515    9.6857 C.2     1  UNL1       -0.0307
      3 C          63.9297   82.7357   11.5336 C.3     1  UNL1        0.0258
      4 C          63.0944   81.5214   11.8124 C.3     1  UNL1        0.0064
      5 C          62.9379   81.0258   13.2195 C.3     1  UNL1        0.0216
      6 C          62.0199   81.7383   14.1680 C.3     1  UNL1        0.0898
      7 C          62.5227   84.1586   14.9675 C.2     1  UNL1        0.2995
      8 O          61.8999   84.7016   13.7156 O.2     1  UNL1       -0.2652
      9 N          62.5827   82.6770   15.1937 N.am    1  UNL1       -0.2971
     10 H          62.9915   82.3207   16.0153 H       1  UNL1        0.1499
     11 C          62.7280   86.7738   17.9456 C.3     1  UNL1        0.1111
     12 N          62.1652   85.8351   16.9198 N.am    1  UNL1       -0.2954
     13 C          63.0856   85.0973   15.9932 C.2     1  UNL1        0.2996
     14 O          64.5687   85.2982   16.0924 O.2     1  UNL1       -0.2652
     15 H          61.1918   85.7033   16.8548 H       1  UNL1        0.1499
     16 C          62.3936   85.1555   10.6477 C.3     1  UNL1        0.0257
     17 C          61.3226   86.0712   10.1333 C.3     1  UNL1        0.0047
     18 C          60.8903   85.9887    8.6993 C.3     1  UNL1        0.0003
     19 C          60.1346   87.1253    8.0772 C.3     1  UNL1        0.0000
     20 C          59.7824   88.3302    8.8982 C.3     1  UNL1        0.0000
     21 C          60.7761   89.4416    9.0639 C.3     1  UNL1        0.0000
     22 C          61.3123   89.7714   10.4255 C.3     1  UNL1        0.0004
     23 C          62.4948   90.6837   10.5651 C.3     1  UNL1        0.0059
     24 C          63.3588   90.6096   11.7890 C.3     1  UNL1        0.0417
     25 C          63.0976   89.5609   12.8292 C.2     1  UNL1        0.0503
     26 O          62.4804   89.9437   14.1416 O.co2   1  UNL1       -0.5492
     27 O          63.4534   88.1295   12.5569 O.co2   1  UNL1       -0.5492
@<TRIPOS>UNITY_ATOM_ATTR
26 1
charge -1
@<TRIPOS>BOND
     1    11    12    1
     2    12    13   am
     3    13    14    2
     4    13     7    1
     5     7     8    2
     6     7     9   am
     7     9     6    1
     8     6     5    1
     9     5     4    1
    10     4     3    1
    11     3     1    1
    12     1     2    2
    13     2    16    1
    14    16    17    1
    15    17    18    1
    16    18    19    1
    17    19    20    1
    18    20    21    1
    19    21    22    1
    20    22    23    1
    21    23    24    1
    22    24    25    1
    23    25    26   ar
    24    25    27   ar
    25    12    15    1
    26     9    10    1
@<TRIPOS>MOLECULE
*****
 27 26 0 0 0
SMALL
GASTEIGER

@<TRIPOS>ATOM
      1 C          65.0508   85.4411   14.3931 C.2     1  UNL1       -0.0307
      2 C          64.6904   83.9874   14.4747 C.2     1  UNL1       -0.0307
      3 C          64.1517   86.4725   15.0077 C.3     1  UNL1        0.0258
      4 C          64.3843   87.9289   14.7346 C.3     1  UNL1        0.0064
      5 C          63.8777   88.5440   13.4637 C.3     1  UNL1        0.0216
      6 C          63.3133   89.9337   13.4761 C.3     1  UNL1        0.0898
      7 C          65.2998   91.6080   13.4972 C.2     1  UNL1        0.2995
      8 O          65.7685   91.0355   14.8019 O.2     1  UNL1       -0.2652
      9 N          64.0721   91.0571   12.8343 N.am    1  UNL1       -0.2971
     10 H          63.7645   91.4329   11.9779 H       1  UNL1        0.1499
     11 C          66.1980   94.6331   11.0905 C.3     1  UNL1        0.1111
     12 N          65.4392   93.5097   11.7324 N.am    1  UNL1       -0.2954
     13 C          66.0586   92.7315   12.8552 C.2     1  UNL1        0.2996
     14 O          67.4368   93.0768   13.3362 O.2     1  UNL1       -0.2652
     15 H          64.5346   93.2831   11.4167 H       1  UNL1        0.1499
     16 C          63.4307   83.5649   15.1709 C.3     1  UNL1        0.0257
     17 C          62.5078   82.5786   14.5187 C.3     1  UNL1        0.0047
     18 C          63.0531   81.5617   13.5601 C.3     1  UNL1        0.0003
     19 C          62.6482   81.5993   12.1163 C.3     1  UNL1        0.0000
     20 C          63.5386   82.2576   11.1045 C.3     1  UNL1        0.0000
     21 C          63.5931   83.7539   11.0140 C.3     1  UNL1        0.0000
     22 C          62.4483   84.5782   11.5241 C.3     1  UNL1        0.0004
     23 C          62.2844   85.9977   11.0677 C.3     1  UNL1        0.0059
     24 C          61.0890   86.3895   10.2508 C.3     1  UNL1        0.0417
     25 C          60.4544   87.7344   10.4473 C.2     1  UNL1        0.0503
     26 O          60.1044   88.2039   11.8283 O.co2   1  UNL1       -0.5492
     27 O          60.1697   88.6097    9.2630 O.co2   1  UNL1       -0.5492
@<TRIPOS>UNITY_ATOM_ATTR
26 1
charge -1
@<TRIPOS>BOND
     1    11    12    1
     2    12    13   am
     3    13    14    2
     4    13     7    1
     5     7     8    2
     6     7     9   am
     7     9     6    1
     8     6     5    1
     9     5     4    1
    10     4     3    1
    11     3     1    1
    12     1     2    2
    13     2    16    1
    14    16    17    1
    15    17    18    1
    16    18    19    1
    17    19    20    1
    18    20    21    1
    19    21    22    1
    20    22    23    1
    21    23    24    1
    22    24    25    1
    23    25    26   ar
    24    25    27   ar
    25    12    15    1
    26     9    10    1
@<TRIPOS>MOLECULE
*****
 27 26 0 0 0
SMALL
GASTEIGER

@<TRIPOS>ATOM
      1 C          60.7673   87.6331    9.2925 C.2     1  UNL1       -0.0307
      2 C          61.2421   86.3468    8.6845 C.2     1  UNL1       -0.0307
      3 C          61.7584   88.6040    9.8626 C.3     1  UNL1        0.0258
      4 C          62.2623   88.4255   11.2641 C.3     1  UNL1        0.0064
      5 C          62.9765   89.5502   11.9534 C.3     1  UNL1        0.0216
      6 C          62.8810   90.9447   11.4089 C.3     1  UNL1        0.0898
      7 C          65.1011   92.2912   11.4992 C.2     1  UNL1        0.2995
      8 O          64.9689   92.4094   12.9886 O.2     1  UNL1       -0.2652
      9 N          64.0571   91.5588   10.7093 N.am    1  UNL1       -0.2971
     10 H          64.1439   91.4813    9.7317 H       1  UNL1        0.1499
     11 C          67.2390   94.5917    9.0729 C.3     1  UNL1        0.1111
     12 N          66.0630   93.9776    9.7726 N.am    1  UNL1       -0.2954
     13 C          66.2772   92.9053   10.7995 C.2     1  UNL1        0.2996
     14 O          67.6676   92.4473   11.1266 O.2     1  UNL1       -0.2652
     15 H          65.1504   94.2782    9.5579 H       1  UNL1        0.1499
     16 C          62.7081   86.0313    8.6465 C.3     1  UNL1        0.0257
     17 C          63.1773   84.6211    8.8494 C.3     1  UNL1        0.0047
     18 C          63.5733   84.1520   10.2181 C.3     1  UNL1        0.0003
     19 C          64.2706   82.8348   10.3869 C.3     1  UNL1        0.0000
     20 C          63.4779   81.6020   10.7060 C.3     1  UNL1        0.0000
     21 C          62.5070   81.6097   11.8493 C.3     1  UNL1        0.0000
     22 C          62.9777   81.2808   13.2352 C.3     1  UNL1        0.0004
     23 C          63.4131   82.3789   14.1597 C.3     1  UNL1        0.0059
     24 C          63.0057   83.7961   13.8851 C.3     1  UNL1        0.0417
     25 C          64.0218   84.8969   13.9620 C.2     1  UNL1        0.0503
     26 O          63.6218   86.3095   13.6549 O.co2   1  UNL1       -0.5492
     27 O          65.4378   84.5850   14.3460 O.co2   1  UNL1       -0.5492
@<TRIPOS>UNITY_ATOM_ATTR
26 1
charge -1
@<TRIPOS>BOND
     1    11    12    1
     2    12    13   am
     3    13    14    2
     4    13     7    1
     5     7     8    2
     6     7     9   am
     7     9     6    1
     8     6     5    1
     9     5     4    1
    10     4     3    1
    11     3     1    1
    12     1     2    2
    13     2    16    1
    14    16    17    1
    15    17    18    1
    16    18    19    1
    17    19    20    1
    18    20    21    1
    19    21    22    1
    20    22    23    1
    21    23    24    1
    22    24    25    1
    23    25    26   ar
    24    25    27   ar
    25    12    15    1
    26     9    10    1
@<TRIPOS>MOLECULE
*****
 27 26 0 0 0
SMALL
GASTEIGER

@<TRIPOS>ATOM
      1 C          61.7324   88.2469   11.0800 C.2     1  UNL1       -0.0307
      2 C          60.5071   87.4897   10.6615 C.2     1  UNL1       -0.0307
      3 C          62.4454   89.1238   10.0939 C.3     1  UNL1        0.0258
      4 C          62.4067   90.6151   10.2512 C.3     1  UNL1        0.0064
      5 C          63.6125   91.3469   10.7618 C.3     1  UNL1        0.0216
      6 C          63.9387   91.3254   12.2257 C.3     1  UNL1        0.0898
      7 C          63.7173   90.0178   14.4598 C.2     1  UNL1        0.2995
      8 O          63.5018   91.3081   15.1937 O.2     1  UNL1       -0.2652
      9 N          63.9358   90.0265   12.9758 N.am    1  UNL1       -0.2971
     10 H          64.0773   89.1796   12.4941 H       1  UNL1        0.1499
     11 C          64.2760   86.1846   15.3227 C.3     1  UNL1        0.1111
     12 N          64.2789   87.4836   14.5727 N.am    1  UNL1       -0.2954
     13 C          63.7144   88.7187   15.2098 C.2     1  UNL1        0.2996
     14 O          63.1471   88.6548   16.5969 O.2     1  UNL1       -0.2652
     15 H          64.6513   87.5256   13.6623 H       1  UNL1        0.1499
     16 C          59.9947   87.6095    9.2569 C.3     1  UNL1        0.0257
     17 C          59.8718   86.3869    8.3966 C.3     1  UNL1        0.0047
     18 C          60.9130   86.0932    7.3575 C.3     1  UNL1        0.0003
     19 C          61.9860   85.0825    7.6356 C.3     1  UNL1        0.0000
     20 C          63.0559   85.3825    8.6432 C.3     1  UNL1        0.0000
     21 C          63.1412   84.5805    9.9079 C.3     1  UNL1        0.0000
     22 C          63.9882   83.3434    9.9558 C.3     1  UNL1        0.0004
     23 C          63.7044   82.2791   10.9740 C.3     1  UNL1        0.0059
     24 C          64.3289   82.3581   12.3355 C.3     1  UNL1        0.0417
     25 C          63.5586   82.9448   13.4811 C.2     1  UNL1        0.0503
     26 O          63.7842   82.4374   14.8745 O.co2   1  UNL1       -0.5492
     27 O          62.5628   84.0388   13.2334 O.co2   1  UNL1       -0.5492
@<TRIPOS>UNITY_ATOM_ATTR
26 1
charge -1
@<TRIPOS>BOND
     1    11    12    1
     2    12    13   am
     3    13    14    2
     4    13     7    1
     5     7     8    2
     6     7     9   am
     7     9     6    1
     8     6     5    1
     9     5     4    1
    10     4     3    1
    11     3     1    1
    12     1     2    2
    13     2    16    1
    14    16    17    1
    15    17    18    1
    16    18    19    1
    17    19    20    1
    18    20    21    1
    19    21    22    1
    20    22    23    1
    21    23    24    1
    22    24    25    1
    23    25    26   ar
    24    25    27   ar
    25    12    15    1
    26     9    10    1
