@<TRIPOS>MOLECULE
*****
 36 40 0 0 0
SMALL
GASTEIGER

@<TRIPOS>ATOM
      1 N          62.9594   90.6678   12.2621 N.3     1  UNL1       -0.2679
      2 C          64.1897   91.5016   12.0591 C.3     1  UNL1        0.0978
      3 C          64.6202   91.8780   10.6724 C.3     1  UNL1        0.0224
      4 C          65.8504   92.7119   10.4694 C.3     1  UNL1        0.0065
      5 C          66.6501   93.1693   11.6530 C.3     1  UNL1        0.0277
      6 C          66.2196   92.7929   13.0397 C.ar    1  UNL1       -0.0073
      7 C          67.0194   93.2504   14.2235 C.ar    1  UNL1       -0.0015
      8 C          66.5889   92.8740   15.6102 C.ar    1  UNL1        0.0203
      9 C          65.3587   92.0402   15.8132 C.ar    1  UNL1        0.0985
     10 N          64.5589   91.5827   14.6295 N.ar    1  UNL1       -0.2471
     11 C          64.9894   91.9591   13.2427 C.ar    1  UNL1        0.0695
     12 C          62.9043   89.6730   13.3834 C.3     1  UNL1        0.0725
     13 C          63.7972   88.4678   13.3614 C.3     1  UNL1        0.0188
     14 C          64.4104   87.9654   14.6347 C.3     1  UNL1        0.0185
     15 C          64.5340   86.4902   14.8766 C.3     1  UNL1        0.0689
     16 N          63.3045   85.6624   15.1073 N.3     1  UNL1       -0.2924
     17 H          62.8701   86.0121   15.9614 H       1  UNL1        0.1236
     18 C          63.4196   84.1744   15.2581 C.3     1  UNL1        0.1151
     19 C          62.9524   81.5060   11.6649 C.ar    1  UNL1        0.0207
     20 C          63.0160   82.9945   11.4905 C.ar    1  UNL1        0.0028
     21 C          63.1717   83.8840   12.6882 C.ar    1  UNL1        0.0161
     22 C          63.2639   83.2850   14.0603 C.ar    1  UNL1        0.0749
     23 N          63.2003   81.7965   14.2347 N.ar    1  UNL1       -0.2468
     24 C          63.0446   80.9070   13.0370 C.ar    1  UNL1        0.0985
     25 C          61.7843   90.8287   11.3439 C.3     1  UNL1        0.0886
     26 C          61.4075   89.7199   10.4065 C.3     1  UNL1        0.0748
     27 C          62.3316   88.5542   10.2137 C.3     1  UNL1        0.0432
     28 C          61.9548   87.4454    9.2764 C.ar    1  UNL1       -0.0234
     29 C          62.8788   86.2797    9.0836 C.ar    1  UNL1       -0.0045
     30 C          62.5020   85.1710    8.1463 C.ar    1  UNL1       -0.0003
     31 C          61.2011   85.2279    7.4017 C.ar    1  UNL1       -0.0003
     32 C          60.2770   86.3936    7.5945 C.ar    1  UNL1       -0.0032
     33 C          60.6538   87.5023    8.5319 C.ar    1  UNL1       -0.0103
     34 C          59.7297   88.6681    8.7247 C.3     1  UNL1        0.0953
     35 N          60.1066   89.7768    9.6620 N.3     1  UNL1       -0.2934
     36 H          59.3681   89.8332   10.3634 H       1  UNL1        0.1236
@<TRIPOS>BOND
     1    19    20   ar
     2    20    21   ar
     3    21    22   ar
     4    22    18    1
     5    18    16    1
     6    16    15    1
     7    15    14    1
     8    14    13    1
     9    13    12    1
    10    12     1    1
    11     1    25    1
    12    26    25    1
    13    26    27    1
    14    27    28    1
    15    28    29   ar
    16    29    30   ar
    17    30    31   ar
    18    31    32   ar
    19    32    33   ar
    20    33    34    1
    21    34    35    1
    22     2     1    1
    23     2     3    1
    24     3     4    1
    25     4     5    1
    26     5     6    1
    27     6     7   ar
    28     7     8   ar
    29     8     9   ar
    30     9    10   ar
    31    10    11   ar
    32    22    23   ar
    33    23    24   ar
    34    24    19   ar
    35    35    26    1
    36    11     2    1
    37    33    28   ar
    38    11     6   ar
    39    16    17    1
    40    35    36    1
@<TRIPOS>MOLECULE
*****
 36 40 0 0 0
SMALL
GASTEIGER

@<TRIPOS>ATOM
      1 N          63.5058   88.9023   14.0760 N.3     1  UNL1       -0.2679
      2 C          63.3560   89.6247   12.7701 C.3     1  UNL1        0.0978
      3 C          64.1408   90.8764   12.5110 C.3     1  UNL1        0.0224
      4 C          63.9910   91.5989   11.2050 C.3     1  UNL1        0.0065
      5 C          63.0563   91.0696   10.1581 C.3     1  UNL1        0.0277
      6 C          62.2714   89.8179   10.4171 C.ar    1  UNL1       -0.0073
      7 C          61.3366   89.2886    9.3701 C.ar    1  UNL1       -0.0015
      8 C          60.5518   88.0369    9.6292 C.ar    1  UNL1        0.0203
      9 C          60.7016   87.3144   10.9351 C.ar    1  UNL1        0.0985
     10 N          61.6363   87.8437   11.9821 N.ar    1  UNL1       -0.2471
     11 C          62.4212   89.0954   11.7231 C.ar    1  UNL1        0.0695
     12 C          62.7576   89.3774   15.2861 C.3     1  UNL1        0.0725
     13 C          63.4820   90.1109   16.3758 C.3     1  UNL1        0.0188
     14 C          63.9473   91.5191   16.1510 C.3     1  UNL1        0.0185
     15 C          65.3604   91.7826   15.7226 C.3     1  UNL1        0.0689
     16 N          65.7313   93.1136   15.1386 N.3     1  UNL1       -0.2924
     17 H          64.9613   93.3933   14.5308 H       1  UNL1        0.1236
     18 C          66.9903   93.2557   14.3356 C.3     1  UNL1        0.1151
     19 C          66.7766   93.5605    9.8511 C.ar    1  UNL1        0.0207
     20 C          66.1076   94.5957   10.7059 C.ar    1  UNL1        0.0028
     21 C          66.1788   94.4941   12.2007 C.ar    1  UNL1        0.0161
     22 C          66.9190   93.3573   12.8407 C.ar    1  UNL1        0.0749
     23 N          67.5881   92.3221   11.9859 N.ar    1  UNL1       -0.2468
     24 C          67.5169   92.4237   10.4911 C.ar    1  UNL1        0.0985
     25 C          64.4039   87.7047   14.1719 C.3     1  UNL1        0.0886
     26 C          63.8126   86.3290   14.2612 C.3     1  UNL1        0.0748
     27 C          63.7636   85.4533   13.0443 C.3     1  UNL1        0.0432
     28 C          63.1723   84.0776   13.1335 C.ar    1  UNL1       -0.0234
     29 C          63.1233   83.2020   11.9167 C.ar    1  UNL1       -0.0045
     30 C          62.5320   81.8263   12.0059 C.ar    1  UNL1       -0.0003
     31 C          61.9897   81.3264   13.3121 C.ar    1  UNL1       -0.0003
     32 C          62.0387   82.2020   14.5289 C.ar    1  UNL1       -0.0032
     33 C          62.6300   83.5777   14.4396 C.ar    1  UNL1       -0.0103
     34 C          62.6790   84.4534   15.6565 C.3     1  UNL1        0.0953
     35 N          63.2703   85.8290   15.5673 N.3     1  UNL1       -0.2934
     36 H          64.0384   85.8634   16.2375 H       1  UNL1        0.1236
@<TRIPOS>BOND
     1    19    20   ar
     2    20    21   ar
     3    21    22   ar
     4    22    18    1
     5    18    16    1
     6    16    15    1
     7    15    14    1
     8    14    13    1
     9    13    12    1
    10    12     1    1
    11     1    25    1
    12    26    25    1
    13    26    27    1
    14    27    28    1
    15    28    29   ar
    16    29    30   ar
    17    30    31   ar
    18    31    32   ar
    19    32    33   ar
    20    33    34    1
    21    34    35    1
    22     2     1    1
    23     2     3    1
    24     3     4    1
    25     4     5    1
    26     5     6    1
    27     6     7   ar
    28     7     8   ar
    29     8     9   ar
    30     9    10   ar
    31    10    11   ar
    32    22    23   ar
    33    23    24   ar
    34    24    19   ar
    35    35    26    1
    36    11     2    1
    37    33    28   ar
    38    11     6   ar
    39    16    17    1
    40    35    36    1
@<TRIPOS>MOLECULE
*****
 36 40 0 0 0
SMALL
GASTEIGER

@<TRIPOS>ATOM
      1 N          63.3316   88.8963   13.4809 N.3     1  UNL1       -0.2679
      2 C          62.8622   89.2022   12.0895 C.3     1  UNL1        0.0978
      3 C          62.9727   90.5976   11.5505 C.3     1  UNL1        0.0224
      4 C          62.5032   90.9035   10.1591 C.3     1  UNL1        0.0065
      5 C          61.9233   89.8140    9.3067 C.3     1  UNL1        0.0277
      6 C          61.8128   88.4186    9.8457 C.ar    1  UNL1       -0.0073
      7 C          61.2328   87.3290    8.9933 C.ar    1  UNL1       -0.0015
      8 C          61.1223   85.9336    9.5323 C.ar    1  UNL1        0.0203
      9 C          61.5918   85.6277   10.9238 C.ar    1  UNL1        0.0985
     10 N          62.1717   86.7172   11.7761 N.ar    1  UNL1       -0.2471
     11 C          62.2822   88.1127   11.2371 C.ar    1  UNL1        0.0695
     12 C          64.0058   87.5889   13.7746 C.3     1  UNL1        0.0725
     13 C          64.2912   87.1942   15.1934 C.3     1  UNL1        0.0188
     14 C          64.1788   85.7575   15.6092 C.3     1  UNL1        0.0185
     15 C          62.8582   85.2088   16.0618 C.3     1  UNL1        0.0689
     16 N          62.0388   84.3636   15.1320 N.3     1  UNL1       -0.2924
     17 H          61.1341   84.2234   15.5817 H       1  UNL1        0.1236
     18 C          62.5319   83.0084   14.7194 C.3     1  UNL1        0.1151
     19 C          64.0029   82.3315   10.5209 C.ar    1  UNL1        0.0207
     20 C          62.9598   81.4257   11.1053 C.ar    1  UNL1        0.0028
     21 C          62.4695   81.6513   12.5048 C.ar    1  UNL1        0.0161
     22 C          63.0222   82.7827   13.3198 C.ar    1  UNL1        0.0749
     23 N          64.0653   83.6885   12.7354 N.ar    1  UNL1       -0.2468
     24 C          64.5557   83.4629   11.3359 C.ar    1  UNL1        0.0985
     25 C          63.1268   89.8977   14.5787 C.3     1  UNL1        0.0886
     26 C          64.2613   90.7784   15.0117 C.3     1  UNL1        0.0748
     27 C          65.5502   90.7728   14.2445 C.3     1  UNL1        0.0432
     28 C          66.6847   91.6535   14.6775 C.ar    1  UNL1       -0.0234
     29 C          67.9736   91.6479   13.9103 C.ar    1  UNL1       -0.0045
     30 C          69.1079   92.5285   14.3433 C.ar    1  UNL1       -0.0003
     31 C          68.9535   93.4148   15.5436 C.ar    1  UNL1       -0.0003
     32 C          67.6646   93.4204   16.3109 C.ar    1  UNL1       -0.0032
     33 C          66.5302   92.5397   15.8778 C.ar    1  UNL1       -0.0103
     34 C          65.2412   92.5453   16.6451 C.3     1  UNL1        0.0953
     35 N          64.1068   91.6647   16.2120 N.3     1  UNL1       -0.2934
     36 H          63.3130   92.2774   16.0254 H       1  UNL1        0.1236
@<TRIPOS>BOND
     1    19    20   ar
     2    20    21   ar
     3    21    22   ar
     4    22    18    1
     5    18    16    1
     6    16    15    1
     7    15    14    1
     8    14    13    1
     9    13    12    1
    10    12     1    1
    11     1    25    1
    12    26    25    1
    13    26    27    1
    14    27    28    1
    15    28    29   ar
    16    29    30   ar
    17    30    31   ar
    18    31    32   ar
    19    32    33   ar
    20    33    34    1
    21    34    35    1
    22     2     1    1
    23     2     3    1
    24     3     4    1
    25     4     5    1
    26     5     6    1
    27     6     7   ar
    28     7     8   ar
    29     8     9   ar
    30     9    10   ar
    31    10    11   ar
    32    22    23   ar
    33    23    24   ar
    34    24    19   ar
    35    35    26    1
    36    11     2    1
    37    33    28   ar
    38    11     6   ar
    39    16    17    1
    40    35    36    1
@<TRIPOS>MOLECULE
*****
 36 40 0 0 0
SMALL
GASTEIGER

@<TRIPOS>ATOM
      1 N          64.2507   90.1910   14.8888 N.3     1  UNL1       -0.2679
      2 C          65.1781   91.3534   14.6919 C.3     1  UNL1        0.0978
      3 C          66.0037   91.8568   15.8386 C.3     1  UNL1        0.0224
      4 C          66.9311   93.0192   15.6417 C.3     1  UNL1        0.0065
      5 C          67.0330   93.6781   14.2981 C.3     1  UNL1        0.0277
      6 C          66.2074   93.1747   13.1514 C.ar    1  UNL1       -0.0073
      7 C          66.3093   93.8337   11.8077 C.ar    1  UNL1       -0.0015
      8 C          65.4837   93.3303   10.6610 C.ar    1  UNL1        0.0203
      9 C          64.5563   92.1679   10.8579 C.ar    1  UNL1        0.0985
     10 N          64.4544   91.5089   12.2015 N.ar    1  UNL1       -0.2471
     11 C          65.2800   92.0123   13.3483 C.ar    1  UNL1        0.0695
     12 C          63.3142   90.1688   16.0603 C.3     1  UNL1        0.0725
     13 C          62.5396   88.9241   16.3779 C.3     1  UNL1        0.0188
     14 C          63.1734   87.8326   17.1884 C.3     1  UNL1        0.0185
     15 C          62.3733   86.6241   17.5745 C.3     1  UNL1        0.0689
     16 N          62.1273   85.5357   16.5720 N.3     1  UNL1       -0.2924
     17 H          61.6401   84.7868   17.0641 H       1  UNL1        0.1236
     18 C          63.2820   84.9025   15.8540 C.3     1  UNL1        0.1151
     19 C          62.5279   82.0640   12.4445 C.ar    1  UNL1        0.0207
     20 C          62.7137   83.5278   12.1747 C.ar    1  UNL1        0.0028
     21 C          62.9650   84.4739   13.3111 C.ar    1  UNL1        0.0161
     22 C          63.0306   83.9563   14.7174 C.ar    1  UNL1        0.0749
     23 N          62.8449   82.4925   14.9873 N.ar    1  UNL1       -0.2468
     24 C          62.5935   81.5464   13.8508 C.ar    1  UNL1        0.0985
     25 C          64.2598   89.0508   13.9143 C.3     1  UNL1        0.0886
     26 C          63.1574   88.9172   12.9058 C.3     1  UNL1        0.0748
     27 C          63.1309   87.7413   11.9750 C.3     1  UNL1        0.0432
     28 C          62.0285   87.6078   10.9665 C.ar    1  UNL1       -0.0234
     29 C          62.0019   86.4319   10.0357 C.ar    1  UNL1       -0.0045
     30 C          60.8995   86.2984    9.0273 C.ar    1  UNL1       -0.0003
     31 C          59.8237   87.3407    8.9498 C.ar    1  UNL1       -0.0003
     32 C          59.8502   88.5166    9.8806 C.ar    1  UNL1       -0.0032
     33 C          60.9526   88.6501   10.8890 C.ar    1  UNL1       -0.0103
     34 C          60.9792   89.8261   11.8199 C.3     1  UNL1        0.0953
     35 N          62.0816   89.9596   12.8283 N.3     1  UNL1       -0.2934
     36 H          61.6383   89.9941   13.7463 H       1  UNL1        0.1236
@<TRIPOS>BOND
     1    19    20   ar
     2    20    21   ar
     3    21    22   ar
     4    22    18    1
     5    18    16    1
     6    16    15    1
     7    15    14    1
     8    14    13    1
     9    13    12    1
    10    12     1    1
    11     1    25    1
    12    26    25    1
    13    26    27    1
    14    27    28    1
    15    28    29   ar
    16    29    30   ar
    17    30    31   ar
    18    31    32   ar
    19    32    33   ar
    20    33    34    1
    21    34    35    1
    22     2     1    1
    23     2     3    1
    24     3     4    1
    25     4     5    1
    26     5     6    1
    27     6     7   ar
    28     7     8   ar
    29     8     9   ar
    30     9    10   ar
    31    10    11   ar
    32    22    23   ar
    33    23    24   ar
    34    24    19   ar
    35    35    26    1
    36    11     2    1
    37    33    28   ar
    38    11     6   ar
    39    16    17    1
    40    35    36    1
@<TRIPOS>MOLECULE
*****
 36 40 0 0 0
SMALL
GASTEIGER

@<TRIPOS>ATOM
      1 N          62.3794   89.4444   12.2632 N.3     1  UNL1       -0.2679
      2 C          63.2678   90.1653   13.2333 C.3     1  UNL1        0.0978
      3 C          63.1932   89.8476   14.6974 C.3     1  UNL1        0.0224
      4 C          64.0816   90.5685   15.6674 C.3     1  UNL1        0.0065
      5 C          65.0445   91.6072   15.1735 C.3     1  UNL1        0.0277
      6 C          65.1190   91.9248   13.7094 C.ar    1  UNL1       -0.0073
      7 C          66.0820   92.9635   13.2154 C.ar    1  UNL1       -0.0015
      8 C          66.1565   93.2812   11.7513 C.ar    1  UNL1        0.0203
      9 C          65.2681   92.5603   10.7813 C.ar    1  UNL1        0.0985
     10 N          64.3052   91.5217   11.2752 N.ar    1  UNL1       -0.2471
     11 C          64.2307   91.2039   12.7393 C.ar    1  UNL1        0.0695
     12 C          60.9902   89.9465   12.0025 C.3     1  UNL1        0.0725
     13 C          60.5334   90.1924   10.5950 C.3     1  UNL1        0.0188
     14 C          59.8801   89.0901    9.8152 C.3     1  UNL1        0.0185
     15 C          59.7276   89.2121    8.3280 C.3     1  UNL1        0.0689
     16 N          58.9372   88.1881    7.5686 N.3     1  UNL1       -0.2924
     17 H          57.9532   88.4305    7.6842 H       1  UNL1        0.1236
     18 C          59.0681   86.7338    7.9120 C.3     1  UNL1        0.1151
     19 C          62.9563   84.5901    7.1796 C.ar    1  UNL1        0.0207
     20 C          62.8160   85.5074    8.3581 C.ar    1  UNL1        0.0028
     21 C          61.5200   86.2219    8.6023 C.ar    1  UNL1        0.0161
     22 C          60.3643   86.0192    7.6679 C.ar    1  UNL1        0.0749
     23 N          60.5046   85.1019    6.4893 N.ar    1  UNL1       -0.2468
     24 C          61.8006   84.3874    6.2452 C.ar    1  UNL1        0.0985
     25 C          62.8802   88.2213   11.5539 C.3     1  UNL1        0.0886
     26 C          63.1103   86.9518   12.3192 C.3     1  UNL1        0.0748
     27 C          62.6739   85.6382   11.7415 C.3     1  UNL1        0.0432
     28 C          62.9040   84.3687   12.5068 C.ar    1  UNL1       -0.0234
     29 C          62.4675   83.0551   11.9291 C.ar    1  UNL1       -0.0045
     30 C          62.6977   81.7858   12.6944 C.ar    1  UNL1       -0.0003
     31 C          63.3643   81.8300   14.0374 C.ar    1  UNL1       -0.0003
     32 C          63.8008   83.1437   14.6151 C.ar    1  UNL1       -0.0032
     33 C          63.5707   84.4130   13.8498 C.ar    1  UNL1       -0.0103
     34 C          64.0071   85.7268   14.4275 C.3     1  UNL1        0.0953
     35 N          63.7770   86.9961   13.6622 N.3     1  UNL1       -0.2934
     36 H          64.6914   87.4259   13.5229 H       1  UNL1        0.1236
@<TRIPOS>BOND
     1    19    20   ar
     2    20    21   ar
     3    21    22   ar
     4    22    18    1
     5    18    16    1
     6    16    15    1
     7    15    14    1
     8    14    13    1
     9    13    12    1
    10    12     1    1
    11     1    25    1
    12    26    25    1
    13    26    27    1
    14    27    28    1
    15    28    29   ar
    16    29    30   ar
    17    30    31   ar
    18    31    32   ar
    19    32    33   ar
    20    33    34    1
    21    34    35    1
    22     2     1    1
    23     2     3    1
    24     3     4    1
    25     4     5    1
    26     5     6    1
    27     6     7   ar
    28     7     8   ar
    29     8     9   ar
    30     9    10   ar
    31    10    11   ar
    32    22    23   ar
    33    23    24   ar
    34    24    19   ar
    35    35    26    1
    36    11     2    1
    37    33    28   ar
    38    11     6   ar
    39    16    17    1
    40    35    36    1
@<TRIPOS>MOLECULE
*****
 36 40 0 0 0
SMALL
GASTEIGER

@<TRIPOS>ATOM
      1 N          63.4403   90.4042   11.9180 N.3     1  UNL1       -0.2679
      2 C          64.4303   91.5289   11.8473 C.3     1  UNL1        0.0978
      3 C          64.7387   92.1748   10.5291 C.3     1  UNL1        0.0224
      4 C          65.7287   93.2995   10.4584 C.3     1  UNL1        0.0065
      5 C          66.4103   93.7783   11.7058 C.3     1  UNL1        0.0277
      6 C          66.1019   93.1323   13.0240 C.ar    1  UNL1       -0.0073
      7 C          66.7835   93.6111   14.2715 C.ar    1  UNL1       -0.0015
      8 C          66.4751   92.9651   15.5897 C.ar    1  UNL1        0.0203
      9 C          65.4851   91.8404   15.6604 C.ar    1  UNL1        0.0985
     10 N          64.8035   91.3617   14.4130 N.ar    1  UNL1       -0.2471
     11 C          65.1119   92.0076   13.0947 C.ar    1  UNL1        0.0695
     12 C          62.7739   89.9119   10.6676 C.3     1  UNL1        0.0725
     13 C          61.5652   90.6213   10.1328 C.3     1  UNL1        0.0188
     14 C          60.1918   90.1627   10.5247 C.3     1  UNL1        0.0185
     15 C          60.0229   88.9242   11.3539 C.3     1  UNL1        0.0689
     16 N          59.8174   87.5968   10.6861 N.3     1  UNL1       -0.2924
     17 H          60.5612   86.9824   11.0171 H       1  UNL1        0.1236
     18 C          59.8125   87.5032    9.1890 C.3     1  UNL1        0.1151
     19 C          62.5994   84.6508    7.1040 C.ar    1  UNL1        0.0207
     20 C          63.0881   85.4605    8.2683 C.ar    1  UNL1        0.0028
     21 C          62.1592   86.4113    8.9633 C.ar    1  UNL1        0.0161
     22 C          60.7415   86.5524    8.4940 C.ar    1  UNL1        0.0749
     23 N          60.2528   85.7427    7.3297 N.ar    1  UNL1       -0.2468
     24 C          61.1817   84.7919    6.6347 C.ar    1  UNL1        0.0985
     25 C          63.1168   89.7717   13.2391 C.3     1  UNL1        0.0886
     26 C          63.4812   88.3391   13.4940 C.3     1  UNL1        0.0748
     27 C          62.9962   87.2653   12.5658 C.3     1  UNL1        0.0432
     28 C          63.3605   85.8327   12.8208 C.ar    1  UNL1       -0.0234
     29 C          62.8756   84.7588   11.8926 C.ar    1  UNL1       -0.0045
     30 C          63.2399   83.3263   12.1475 C.ar    1  UNL1       -0.0003
     31 C          64.0893   82.9676   13.3308 C.ar    1  UNL1       -0.0003
     32 C          64.5742   84.0414   14.2590 C.ar    1  UNL1       -0.0032
     33 C          64.2099   85.4740   14.0040 C.ar    1  UNL1       -0.0103
     34 C          64.6949   86.5479   14.9322 C.3     1  UNL1        0.0953
     35 N          64.3305   87.9804   14.6772 N.3     1  UNL1       -0.2934
     36 H          65.2063   88.4937   14.5775 H       1  UNL1        0.1236
@<TRIPOS>BOND
     1    19    20   ar
     2    20    21   ar
     3    21    22   ar
     4    22    18    1
     5    18    16    1
     6    16    15    1
     7    15    14    1
     8    14    13    1
     9    13    12    1
    10    12     1    1
    11     1    25    1
    12    26    25    1
    13    26    27    1
    14    27    28    1
    15    28    29   ar
    16    29    30   ar
    17    30    31   ar
    18    31    32   ar
    19    32    33   ar
    20    33    34    1
    21    34    35    1
    22     2     1    1
    23     2     3    1
    24     3     4    1
    25     4     5    1
    26     5     6    1
    27     6     7   ar
    28     7     8   ar
    29     8     9   ar
    30     9    10   ar
    31    10    11   ar
    32    22    23   ar
    33    23    24   ar
    34    24    19   ar
    35    35    26    1
    36    11     2    1
    37    33    28   ar
    38    11     6   ar
    39    16    17    1
    40    35    36    1
@<TRIPOS>MOLECULE
*****
 36 40 0 0 0
SMALL
GASTEIGER

@<TRIPOS>ATOM
      1 N          62.3761   87.2620   11.8270 N.3     1  UNL1       -0.2679
      2 C          62.7204   88.6755   11.4615 C.3     1  UNL1        0.0978
      3 C          62.3028   89.2293   10.1316 C.3     1  UNL1        0.0224
      4 C          62.6472   90.6428    9.7661 C.3     1  UNL1        0.0065
      5 C          63.4092   91.5024   10.7306 C.3     1  UNL1        0.0277
      6 C          63.8269   90.9486   12.0606 C.ar    1  UNL1       -0.0073
      7 C          64.5889   91.8082   13.0251 C.ar    1  UNL1       -0.0015
      8 C          65.0066   91.2544   14.3551 C.ar    1  UNL1        0.0203
      9 C          64.6622   89.8409   14.7205 C.ar    1  UNL1        0.0985
     10 N          63.9002   88.9813   13.7560 N.ar    1  UNL1       -0.2471
     11 C          63.4825   89.5351   12.4260 C.ar    1  UNL1        0.0695
     12 C          61.1232   86.6334   11.2932 C.3     1  UNL1        0.0725
     13 C          61.1490   85.9061    9.9815 C.3     1  UNL1        0.0188
     14 C          60.7254   86.6088    8.7259 C.3     1  UNL1        0.0185
     15 C          59.2682   86.8206    8.4402 C.3     1  UNL1        0.0689
     16 N          58.8406   87.8812    7.4693 N.3     1  UNL1       -0.2924
     17 H          58.6644   87.4129    6.5804 H       1  UNL1        0.1236
     18 C          59.7476   89.0393    7.1762 C.3     1  UNL1        0.1151
     19 C          58.5281   92.1443    4.1559 C.ar    1  UNL1        0.0207
     20 C          57.4819   91.4103    4.9413 C.ar    1  UNL1        0.0028
     21 C          57.8884   90.3754    5.9481 C.ar    1  UNL1        0.0161
     22 C          59.3411   90.0743    6.1694 C.ar    1  UNL1        0.0749
     23 N          60.3873   90.8083    5.3840 N.ar    1  UNL1       -0.2468
     24 C          59.9808   91.8432    4.3773 C.ar    1  UNL1        0.0985
     25 C          63.2846   86.4772   12.7262 C.3     1  UNL1        0.0886
     26 C          62.9846   85.0381   13.0244 C.3     1  UNL1        0.0748
     27 C          63.2154   83.9909   11.9755 C.3     1  UNL1        0.0432
     28 C          62.9155   82.5517   12.2737 C.ar    1  UNL1       -0.0234
     29 C          63.1463   81.5046   11.2248 C.ar    1  UNL1       -0.0045
     30 C          62.8463   80.0655   11.5230 C.ar    1  UNL1       -0.0003
     31 C          62.3155   79.6735   12.8701 C.ar    1  UNL1       -0.0003
     32 C          62.0847   80.7207   13.9189 C.ar    1  UNL1       -0.0032
     33 C          62.3847   82.1598   13.6207 C.ar    1  UNL1       -0.0103
     34 C          62.1539   83.2070   14.6697 C.3     1  UNL1        0.0953
     35 N          62.4538   84.6461   14.3715 N.3     1  UNL1       -0.2934
     36 H          63.1418   84.9521   15.0595 H       1  UNL1        0.1236
@<TRIPOS>BOND
     1    19    20   ar
     2    20    21   ar
     3    21    22   ar
     4    22    18    1
     5    18    16    1
     6    16    15    1
     7    15    14    1
     8    14    13    1
     9    13    12    1
    10    12     1    1
    11     1    25    1
    12    26    25    1
    13    26    27    1
    14    27    28    1
    15    28    29   ar
    16    29    30   ar
    17    30    31   ar
    18    31    32   ar
    19    32    33   ar
    20    33    34    1
    21    34    35    1
    22     2     1    1
    23     2     3    1
    24     3     4    1
    25     4     5    1
    26     5     6    1
    27     6     7   ar
    28     7     8   ar
    29     8     9   ar
    30     9    10   ar
    31    10    11   ar
    32    22    23   ar
    33    23    24   ar
    34    24    19   ar
    35    35    26    1
    36    11     2    1
    37    33    28   ar
    38    11     6   ar
    39    16    17    1
    40    35    36    1
@<TRIPOS>MOLECULE
*****
 36 40 0 0 0
SMALL
GASTEIGER

@<TRIPOS>ATOM
      1 N          63.8627   89.9696   13.5127 N.3     1  UNL1       -0.2679
      2 C          64.3353   90.7881   14.6775 C.3     1  UNL1        0.0978
      3 C          63.4659   90.9382   15.8905 C.3     1  UNL1        0.0224
      4 C          63.9386   91.7567   17.0554 C.3     1  UNL1        0.0065
      5 C          65.2806   92.4249   17.0071 C.3     1  UNL1        0.0277
      6 C          66.1500   92.2748   15.7940 C.ar    1  UNL1       -0.0073
      7 C          67.4921   92.9431   15.7457 C.ar    1  UNL1       -0.0015
      8 C          68.3614   92.7929   14.5326 C.ar    1  UNL1        0.0203
      9 C          67.8888   91.9744   13.3678 C.ar    1  UNL1        0.0985
     10 N          66.5468   91.3062   13.4161 N.ar    1  UNL1       -0.2471
     11 C          65.6773   91.4563   14.6292 C.ar    1  UNL1        0.0695
     12 C          63.8844   88.4718   13.5904 C.3     1  UNL1        0.0725
     13 C          64.3753   87.7924   14.8344 C.3     1  UNL1        0.0188
     14 C          64.8409   86.3677   14.7769 C.3     1  UNL1        0.0185
     15 C          64.2231   85.3399   15.6780 C.3     1  UNL1        0.0689
     16 N          62.7304   85.2231   15.7700 N.3     1  UNL1       -0.2924
     17 H          62.5037   85.1178   16.7589 H       1  UNL1        0.1236
     18 C          62.0181   84.1215   15.0427 C.3     1  UNL1        0.1151
     19 C          63.8466   82.3137   11.3497 C.ar    1  UNL1        0.0207
     20 C          63.7148   81.4945   12.5993 C.ar    1  UNL1        0.0028
     21 C          63.1053   82.0971   13.8303 C.ar    1  UNL1        0.0161
     22 C          62.6276   83.5189   13.8117 C.ar    1  UNL1        0.0749
     23 N          62.7595   84.3381   12.5620 N.ar    1  UNL1       -0.2468
     24 C          63.3690   83.7355   11.3311 C.ar    1  UNL1        0.0985
     25 C          63.3682   90.6490   12.2701 C.3     1  UNL1        0.0886
     26 C          62.3827   89.9548   11.3773 C.3     1  UNL1        0.0748
     27 C          62.7563   88.6663   10.7066 C.3     1  UNL1        0.0432
     28 C          61.7708   87.9722    9.8138 C.ar    1  UNL1       -0.0234
     29 C          62.1444   86.6837    9.1430 C.ar    1  UNL1       -0.0045
     30 C          61.1589   85.9896    8.2503 C.ar    1  UNL1       -0.0003
     31 C          59.7997   86.5841    8.0284 C.ar    1  UNL1       -0.0003
     32 C          59.4261   87.8726    8.6992 C.ar    1  UNL1       -0.0032
     33 C          60.4116   88.5667    9.5919 C.ar    1  UNL1       -0.0103
     34 C          60.0380   89.8553   10.2627 C.3     1  UNL1        0.0953
     35 N          61.0235   90.5493   11.1554 N.3     1  UNL1       -0.2934
     36 H          60.5842   90.6301   12.0724 H       1  UNL1        0.1236
@<TRIPOS>BOND
     1    19    20   ar
     2    20    21   ar
     3    21    22   ar
     4    22    18    1
     5    18    16    1
     6    16    15    1
     7    15    14    1
     8    14    13    1
     9    13    12    1
    10    12     1    1
    11     1    25    1
    12    26    25    1
    13    26    27    1
    14    27    28    1
    15    28    29   ar
    16    29    30   ar
    17    30    31   ar
    18    31    32   ar
    19    32    33   ar
    20    33    34    1
    21    34    35    1
    22     2     1    1
    23     2     3    1
    24     3     4    1
    25     4     5    1
    26     5     6    1
    27     6     7   ar
    28     7     8   ar
    29     8     9   ar
    30     9    10   ar
    31    10    11   ar
    32    22    23   ar
    33    23    24   ar
    34    24    19   ar
    35    35    26    1
    36    11     2    1
    37    33    28   ar
    38    11     6   ar
    39    16    17    1
    40    35    36    1
@<TRIPOS>MOLECULE
*****
 36 40 0 0 0
SMALL
GASTEIGER

@<TRIPOS>ATOM
      1 N          63.4007   89.9221   13.1895 N.3     1  UNL1       -0.2679
      2 C          64.1139   91.0360   12.4821 C.3     1  UNL1        0.0978
      3 C          63.8903   91.2576   11.0155 C.3     1  UNL1        0.0224
      4 C          64.6036   92.3715   10.3080 C.3     1  UNL1        0.0065
      5 C          65.5403   93.2638   11.0671 C.3     1  UNL1        0.0277
      6 C          65.7639   93.0422   12.5337 C.ar    1  UNL1       -0.0073
      7 C          66.7007   93.9345   13.2928 C.ar    1  UNL1       -0.0015
      8 C          66.9242   93.7128   14.7594 C.ar    1  UNL1        0.0203
      9 C          66.2110   92.5989   15.4669 C.ar    1  UNL1        0.0985
     10 N          65.2742   91.7066   14.7078 N.ar    1  UNL1       -0.2471
     11 C          65.0507   91.9282   13.2411 C.ar    1  UNL1        0.0695
     12 C          64.1427   89.0555   14.1634 C.3     1  UNL1        0.0725
     13 C          63.9552   87.5674   14.1373 C.3     1  UNL1        0.0188
     14 C          64.4967   86.7236   15.2530 C.3     1  UNL1        0.0185
     15 C          63.8558   85.4065   15.5761 C.3     1  UNL1        0.0689
     16 N          64.4669   84.1319   15.0741 N.3     1  UNL1       -0.2924
     17 H          65.2773   83.9417   15.6636 H       1  UNL1        0.1236
     18 C          64.9332   84.0329   13.6519 C.3     1  UNL1        0.1151
     19 C          63.0322   81.0572   10.8624 C.ar    1  UNL1        0.0207
     20 C          62.7058   81.0278   12.3261 C.ar    1  UNL1        0.0028
     21 C          63.3395   82.0197   13.2560 C.ar    1  UNL1        0.0161
     22 C          64.2995   83.0410   12.7220 C.ar    1  UNL1        0.0749
     23 N          64.6259   83.0704   11.2583 N.ar    1  UNL1       -0.2468
     24 C          63.9923   82.0786   10.3285 C.ar    1  UNL1        0.0985
     25 C          61.9454   89.6747   12.9232 C.3     1  UNL1        0.0886
     26 C          61.5304   88.8097   11.7701 C.3     1  UNL1        0.0748
     27 C          60.8353   89.4180   10.5883 C.3     1  UNL1        0.0432
     28 C          60.4202   88.5530    9.4352 C.ar    1  UNL1       -0.0234
     29 C          59.7251   89.1613    8.2534 C.ar    1  UNL1       -0.0045
     30 C          59.3101   88.2963    7.1004 C.ar    1  UNL1       -0.0003
     31 C          59.5903   86.8229    7.1292 C.ar    1  UNL1       -0.0003
     32 C          60.2854   86.2146    8.3110 C.ar    1  UNL1       -0.0032
     33 C          60.7004   87.0797    9.4640 C.ar    1  UNL1       -0.0103
     34 C          61.3955   86.4714   10.6459 C.3     1  UNL1        0.0953
     35 N          61.8105   87.3364   11.7989 N.3     1  UNL1       -0.2934
     36 H          62.8201   87.2305   11.8980 H       1  UNL1        0.1236
@<TRIPOS>BOND
     1    19    20   ar
     2    20    21   ar
     3    21    22   ar
     4    22    18    1
     5    18    16    1
     6    16    15    1
     7    15    14    1
     8    14    13    1
     9    13    12    1
    10    12     1    1
    11     1    25    1
    12    26    25    1
    13    26    27    1
    14    27    28    1
    15    28    29   ar
    16    29    30   ar
    17    30    31   ar
    18    31    32   ar
    19    32    33   ar
    20    33    34    1
    21    34    35    1
    22     2     1    1
    23     2     3    1
    24     3     4    1
    25     4     5    1
    26     5     6    1
    27     6     7   ar
    28     7     8   ar
    29     8     9   ar
    30     9    10   ar
    31    10    11   ar
    32    22    23   ar
    33    23    24   ar
    34    24    19   ar
    35    35    26    1
    36    11     2    1
    37    33    28   ar
    38    11     6   ar
    39    16    17    1
    40    35    36    1
