@<TRIPOS>MOLECULE
*****
 27 30 0 0 0
SMALL
GASTEIGER

@<TRIPOS>ATOM
      1 C          61.9943   86.3091   11.0286 C.ar    1  UNL1        0.0927
      2 C          60.7628   86.6617   10.2482 C.ar    1  UNL1        0.0573
      3 S          60.4559   88.1090   10.4956 S.2     1  UNL1       -0.0509
      4 C          61.4977   88.6508   11.4290 C.ar    1  UNL1        0.1635
      5 N          62.4485   87.5384   11.7584 N.ar    1  UNL1       -0.2239
      6 C          63.3653   84.4372    9.8596 C.ar    1  UNL1        0.1401
      7 C          64.0265   83.0916    9.9027 C.ar    1  UNL1        0.0375
      8 C          63.9779   82.2719   11.1580 C.ar    1  UNL1        0.0098
      9 C          63.2682   82.7980   12.3702 C.ar    1  UNL1        0.0348
     10 BR         63.2196   81.9784   13.6256 Br      1  UNL1       -0.0490
     11 C          62.6070   84.1437   12.3271 C.ar    1  UNL1        0.0112
     12 C          62.6555   84.9633   11.0717 C.ar    1  UNL1        0.0527
     13 C          62.5366   84.9000    7.4411 C.3     1  UNL1        0.2525
     14 O          63.4139   85.2569    8.6042 O.3     1  UNL1       -0.4714
     15 N          61.5752   90.0579   11.9427 N.pl3   1  UNL1       -0.2927
     16 H          60.7828   90.6409   11.9028 H       1  UNL1        0.1541
     17 C          62.8599   90.5769   12.5173 C.ar    1  UNL1        0.0498
     18 C          63.2469   90.2293   13.9242 C.ar    1  UNL1        0.0161
     19 C          64.5316   90.7484   14.4986 C.ar    1  UNL1        0.0188
     20 C          65.4293   91.6150   13.6662 C.ar    1  UNL1        0.0656
     21 C          65.0424   91.9626   12.2594 C.ar    1  UNL1        0.0188
     22 C          63.7577   91.4436   11.6848 C.ar    1  UNL1        0.0161
     23 N          66.7141   92.1340   14.2407 N.ar    1  UNL1       -0.2864
     24 C          66.8558   92.9404   15.4976 C.ar    1  UNL1        0.1022
     25 C          68.3120   93.2425   15.6927 C.ar    1  UNL1        0.1196
     26 N          69.0704   92.6229   14.5566 N.ar    1  UNL1       -0.2220
     27 C          68.0828   91.9378   13.6592 C.ar    1  UNL1        0.1828
@<TRIPOS>BOND
     1    13    14    1
     2    14     6    1
     3     6     7   ar
     4     7     8   ar
     5     8     9   ar
     6     9    10    1
     7     9    11   ar
     8    11    12   ar
     9    12     1    1
    10     1     2   ar
    11     2     3   ar
    12     3     4   ar
    13     4    15    1
    14    15    17    1
    15    17    18   ar
    16    18    19   ar
    17    19    20   ar
    18    20    23    1
    19    23    24   ar
    20    24    25   ar
    21    25    26   ar
    22    26    27   ar
    23    20    21   ar
    24    21    22   ar
    25     4     5   ar
    26    12     6   ar
    27     5     1   ar
    28    22    17   ar
    29    27    23   ar
    30    15    16    1
@<TRIPOS>MOLECULE
*****
 27 30 0 0 0
SMALL
GASTEIGER

@<TRIPOS>ATOM
      1 C          62.0918   86.0084   11.2211 C.ar    1  UNL1        0.0927
      2 C          60.8635   86.4638   10.4905 C.ar    1  UNL1        0.0573
      3 S          60.6118   87.8969   10.8551 S.2     1  UNL1       -0.0509
      4 C          61.6846   88.3272   11.8111 C.ar    1  UNL1        0.1635
      5 N          62.5993   87.1601   12.0373 N.ar    1  UNL1       -0.2239
      6 C          63.4253   84.2076    9.9063 C.ar    1  UNL1        0.1401
      7 C          64.0384   82.8406    9.8336 C.ar    1  UNL1        0.0375
      8 C          63.9313   81.9074   11.0031 C.ar    1  UNL1        0.0098
      9 C          63.2110   82.3412   12.2453 C.ar    1  UNL1        0.0348
     10 BR         63.1039   81.4080   13.4147 Br      1  UNL1       -0.0490
     11 C          62.5979   83.7082   12.3179 C.ar    1  UNL1        0.0112
     12 C          62.7050   84.6414   11.1484 C.ar    1  UNL1        0.0527
     13 C          62.6232   84.9709    7.5560 C.3     1  UNL1        0.2525
     14 O          63.5324   85.1407    8.7368 O.3     1  UNL1       -0.4714
     15 N          61.8192   89.6861   12.4318 N.pl3   1  UNL1       -0.2927
     16 H          61.2088   89.9600   13.1541 H       1  UNL1        0.1541
     17 C          62.8837   90.6277   11.9521 C.ar    1  UNL1        0.0498
     18 C          63.9135   91.1469   12.9113 C.ar    1  UNL1        0.0161
     19 C          64.9780   92.0885   12.4315 C.ar    1  UNL1        0.0188
     20 C          65.0127   92.5109   10.9926 C.ar    1  UNL1        0.0656
     21 C          63.9830   91.9917   10.0335 C.ar    1  UNL1        0.0188
     22 C          62.9184   91.0501   10.5133 C.ar    1  UNL1        0.0161
     23 N          66.0773   93.4525   10.5129 N.ar    1  UNL1       -0.2864
     24 C          66.0491   94.9478   10.6283 C.ar    1  UNL1        0.1022
     25 C          67.3112   95.4835   10.0202 C.ar    1  UNL1        0.1196
     26 N          68.1196   94.3194    9.5289 N.ar    1  UNL1       -0.2220
     27 C          67.3569   93.0642    9.8334 C.ar    1  UNL1        0.1828
@<TRIPOS>BOND
     1    13    14    1
     2    14     6    1
     3     6     7   ar
     4     7     8   ar
     5     8     9   ar
     6     9    10    1
     7     9    11   ar
     8    11    12   ar
     9    12     1    1
    10     1     2   ar
    11     2     3   ar
    12     3     4   ar
    13     4    15    1
    14    15    17    1
    15    17    18   ar
    16    18    19   ar
    17    19    20   ar
    18    20    23    1
    19    23    24   ar
    20    24    25   ar
    21    25    26   ar
    22    26    27   ar
    23    20    21   ar
    24    21    22   ar
    25     4     5   ar
    26    12     6   ar
    27     5     1   ar
    28    22    17   ar
    29    27    23   ar
    30    15    16    1
@<TRIPOS>MOLECULE
*****
 27 30 0 0 0
SMALL
GASTEIGER

@<TRIPOS>ATOM
      1 C          62.2914   85.8787   11.4383 C.ar    1  UNL1        0.0927
      2 C          61.2784   86.0707   10.3489 C.ar    1  UNL1        0.0573
      3 S          61.0341   87.5429   10.1973 S.2     1  UNL1       -0.0509
      4 C          61.8962   88.2608   11.1931 C.ar    1  UNL1        0.1635
      5 N          62.6733   87.2322   11.9601 N.ar    1  UNL1       -0.2239
      6 C          63.3825   84.4447   13.3101 C.ar    1  UNL1        0.1401
      7 C          63.9194   83.1300   13.7930 C.ar    1  UNL1        0.0375
      8 C          63.9024   81.9346   12.8871 C.ar    1  UNL1        0.0098
      9 C          63.3483   82.0538   11.4983 C.ar    1  UNL1        0.0348
     10 BR         63.3313   80.8584   10.5924 Br      1  UNL1       -0.0490
     11 C          62.8114   83.3685   11.0154 C.ar    1  UNL1        0.0112
     12 C          62.8284   84.5639   11.9213 C.ar    1  UNL1        0.0527
     13 C          64.6127   85.9335   15.0479 C.3     1  UNL1        0.2525
     14 O          63.3995   85.6401   14.2160 O.3     1  UNL1       -0.4714
     15 N          61.9685   89.7463   11.3877 N.pl3   1  UNL1       -0.2927
     16 H          61.2383   90.3214   11.0632 H       1  UNL1        0.1541
     17 C          63.1534   90.3557   12.0767 C.ar    1  UNL1        0.0498
     18 C          63.9405   91.4379   11.3989 C.ar    1  UNL1        0.0161
     19 C          65.1253   92.0472   12.0879 C.ar    1  UNL1        0.0188
     20 C          65.5232   91.5743   13.4547 C.ar    1  UNL1        0.0656
     21 C          64.7362   90.4921   14.1324 C.ar    1  UNL1        0.0188
     22 C          63.5513   89.8828   13.4434 C.ar    1  UNL1        0.0161
     23 N          66.7081   92.1836   14.1437 N.ar    1  UNL1       -0.2864
     24 C          66.6642   93.0835   15.3430 C.ar    1  UNL1        0.1022
     25 C          68.0739   93.4560   15.6948 C.ar    1  UNL1        0.1196
     26 N          68.9891   92.7863   14.7132 N.ar    1  UNL1       -0.2220
     27 C          68.1450   91.9999   13.7545 C.ar    1  UNL1        0.1828
@<TRIPOS>BOND
     1    13    14    1
     2    14     6    1
     3     6     7   ar
     4     7     8   ar
     5     8     9   ar
     6     9    10    1
     7     9    11   ar
     8    11    12   ar
     9    12     1    1
    10     1     2   ar
    11     2     3   ar
    12     3     4   ar
    13     4    15    1
    14    15    17    1
    15    17    18   ar
    16    18    19   ar
    17    19    20   ar
    18    20    23    1
    19    23    24   ar
    20    24    25   ar
    21    25    26   ar
    22    26    27   ar
    23    20    21   ar
    24    21    22   ar
    25     4     5   ar
    26    12     6   ar
    27     5     1   ar
    28    22    17   ar
    29    27    23   ar
    30    15    16    1
@<TRIPOS>MOLECULE
*****
 27 30 0 0 0
SMALL
GASTEIGER

@<TRIPOS>ATOM
      1 C          63.7866   89.5746   14.5143 C.ar    1  UNL1        0.0927
      2 C          63.3219   90.0194   15.8693 C.ar    1  UNL1        0.0573
      3 S          63.2319   88.8079   16.7492 S.2     1  UNL1       -0.0509
      4 C          63.6410   87.6143   15.9380 C.ar    1  UNL1        0.1635
      5 N          63.9838   88.0882   14.5567 N.ar    1  UNL1       -0.2239
      6 C          63.2108   90.2589   12.0750 C.ar    1  UNL1        0.1401
      7 C          63.4384   91.1449   10.8862 C.ar    1  UNL1        0.0375
      8 C          64.4694   92.2326   10.9480 C.ar    1  UNL1        0.0098
      9 C          65.2729   92.4343   12.1985 C.ar    1  UNL1        0.0348
     10 BR         66.3039   93.5221   12.2602 Br      1  UNL1       -0.0490
     11 C          65.0453   91.5483   13.3872 C.ar    1  UNL1        0.0112
     12 C          64.0142   90.4606   13.3254 C.ar    1  UNL1        0.0527
     13 C          62.4279   87.9490   11.1799 C.3     1  UNL1        0.2525
     14 O          62.1797   89.1712   12.0132 O.3     1  UNL1       -0.4714
     15 N          63.6973   86.1960   16.4228 N.pl3   1  UNL1       -0.2927
     16 H          63.8352   86.0079   17.3793 H       1  UNL1        0.1541
     17 C          63.5436   85.0643   15.4504 C.ar    1  UNL1        0.0498
     18 C          62.3098   84.2118   15.4806 C.ar    1  UNL1        0.0161
     19 C          62.1562   83.0801   14.5082 C.ar    1  UNL1        0.0188
     20 C          63.2363   82.8010   13.5055 C.ar    1  UNL1        0.0656
     21 C          64.4701   83.6535   13.4753 C.ar    1  UNL1        0.0188
     22 C          64.6238   84.7852   14.4477 C.ar    1  UNL1        0.0161
     23 N          63.0827   81.6693   12.5330 N.ar    1  UNL1       -0.2864
     24 C          63.3315   81.7366   11.0554 C.ar    1  UNL1        0.1022
     25 C          63.0559   80.3805   10.4767 C.ar    1  UNL1        0.1196
     26 N          62.6366   79.4750   11.5966 N.ar    1  UNL1       -0.2220
     27 C          62.6532   80.2715   12.8675 C.ar    1  UNL1        0.1828
@<TRIPOS>BOND
     1    13    14    1
     2    14     6    1
     3     6     7   ar
     4     7     8   ar
     5     8     9   ar
     6     9    10    1
     7     9    11   ar
     8    11    12   ar
     9    12     1    1
    10     1     2   ar
    11     2     3   ar
    12     3     4   ar
    13     4    15    1
    14    15    17    1
    15    17    18   ar
    16    18    19   ar
    17    19    20   ar
    18    20    23    1
    19    23    24   ar
    20    24    25   ar
    21    25    26   ar
    22    26    27   ar
    23    20    21   ar
    24    21    22   ar
    25     4     5   ar
    26    12     6   ar
    27     5     1   ar
    28    22    17   ar
    29    27    23   ar
    30    15    16    1
@<TRIPOS>MOLECULE
*****
 27 30 0 0 0
SMALL
GASTEIGER

@<TRIPOS>ATOM
      1 C          63.9134   89.3737   14.8448 C.ar    1  UNL1        0.0927
      2 C          63.2654   89.7050   16.1565 C.ar    1  UNL1        0.0573
      3 S          63.1151   88.4311   16.9340 S.2     1  UNL1       -0.0509
      4 C          63.6702   87.3125   16.1029 C.ar    1  UNL1        0.1635
      5 N          64.1635   87.8951   14.8117 N.ar    1  UNL1       -0.2239
      6 C          65.3239   91.3756   13.9769 C.ar    1  UNL1        0.1401
      7 C          65.6622   92.3516   12.8893 C.ar    1  UNL1        0.0375
      8 C          64.9285   92.3018   11.5820 C.ar    1  UNL1        0.0098
      9 C          63.8564   91.2760   11.3623 C.ar    1  UNL1        0.0348
     10 BR         63.1227   91.2262   10.0549 Br      1  UNL1       -0.0490
     11 C          63.5181   90.3000   12.4499 C.ar    1  UNL1        0.0112
     12 C          64.2518   90.3498   13.7572 C.ar    1  UNL1        0.0527
     13 C          66.7515   92.6861   15.7073 C.3     1  UNL1        0.2525
     14 O          66.0576   91.4254   15.2843 O.3     1  UNL1       -0.4714
     15 N          63.7227   85.8654   16.4942 N.pl3   1  UNL1       -0.2927
     16 H          63.8549   85.6149   17.4371 H       1  UNL1        0.1541
     17 C          63.5736   84.7999   15.4490 C.ar    1  UNL1        0.0498
     18 C          62.3940   83.8741   15.4846 C.ar    1  UNL1        0.0161
     19 C          62.2450   82.8087   14.4393 C.ar    1  UNL1        0.0188
     20 C          63.2756   82.6691   13.3585 C.ar    1  UNL1        0.0656
     21 C          64.4552   83.5948   13.3228 C.ar    1  UNL1        0.0188
     22 C          64.6042   84.6603   14.3681 C.ar    1  UNL1        0.0161
     23 N          63.1266   81.6036   12.3131 N.ar    1  UNL1       -0.2864
     24 C          62.7051   80.1844   12.5545 C.ar    1  UNL1        0.1022
     25 C          62.6910   79.4740   11.2335 C.ar    1  UNL1        0.1196
     26 N          63.1037   80.4541   10.1757 N.ar    1  UNL1       -0.2220
     27 C          63.3729   81.7703   10.8429 C.ar    1  UNL1        0.1828
@<TRIPOS>BOND
     1    13    14    1
     2    14     6    1
     3     6     7   ar
     4     7     8   ar
     5     8     9   ar
     6     9    10    1
     7     9    11   ar
     8    11    12   ar
     9    12     1    1
    10     1     2   ar
    11     2     3   ar
    12     3     4   ar
    13     4    15    1
    14    15    17    1
    15    17    18   ar
    16    18    19   ar
    17    19    20   ar
    18    20    23    1
    19    23    24   ar
    20    24    25   ar
    21    25    26   ar
    22    26    27   ar
    23    20    21   ar
    24    21    22   ar
    25     4     5   ar
    26    12     6   ar
    27     5     1   ar
    28    22    17   ar
    29    27    23   ar
    30    15    16    1
@<TRIPOS>MOLECULE
*****
 27 30 0 0 0
SMALL
GASTEIGER

@<TRIPOS>ATOM
      1 C          62.1694   85.7264   11.6221 C.ar    1  UNL1        0.0927
      2 C          61.2636   85.9642   10.4504 C.ar    1  UNL1        0.0573
      3 S          60.8937   87.4178   10.4379 S.2     1  UNL1       -0.0509
      4 C          61.5709   88.0784   11.6020 C.ar    1  UNL1        0.1635
      5 N          62.3593   87.0330   12.3339 N.ar    1  UNL1       -0.2239
      6 C          63.4274   84.2572   13.3567 C.ar    1  UNL1        0.1401
      7 C          64.0364   82.9434   13.7480 C.ar    1  UNL1        0.0375
      8 C          63.9962   81.7850   12.7959 C.ar    1  UNL1        0.0098
      9 C          63.3472   81.9403   11.4526 C.ar    1  UNL1        0.0348
     10 BR         63.3070   80.7819   10.5006 Br      1  UNL1       -0.0490
     11 C          62.7382   83.2541   11.0614 C.ar    1  UNL1        0.0112
     12 C          62.7784   84.4125   12.0134 C.ar    1  UNL1        0.0527
     13 C          63.9497   85.2145   15.7148 C.3     1  UNL1        0.2525
     14 O          63.4676   85.4156   14.3088 O.3     1  UNL1       -0.4714
     15 N          61.4763   89.5296   11.9697 N.pl3   1  UNL1       -0.2927
     16 H          60.6832   89.8659   12.4462 H       1  UNL1        0.1541
     17 C          62.5901   90.4682   11.6113 C.ar    1  UNL1        0.0498
     18 C          62.7075   90.9927   10.2109 C.ar    1  UNL1        0.0161
     19 C          63.8213   91.9312    9.8525 C.ar    1  UNL1        0.0188
     20 C          64.8176   92.3454   10.8946 C.ar    1  UNL1        0.0656
     21 C          64.7002   91.8209   12.2949 C.ar    1  UNL1        0.0188
     22 C          63.5864   90.8823   12.6533 C.ar    1  UNL1        0.0161
     23 N          65.9315   93.2840   10.5362 N.ar    1  UNL1       -0.2864
     24 C          65.8726   94.7821   10.5860 C.ar    1  UNL1        0.1022
     25 C          67.2044   95.3132   10.1457 C.ar    1  UNL1        0.1196
     26 N          68.0865   94.1436    9.8238 N.ar    1  UNL1       -0.2220
     27 C          67.2998   92.8894   10.0651 C.ar    1  UNL1        0.1828
@<TRIPOS>BOND
     1    13    14    1
     2    14     6    1
     3     6     7   ar
     4     7     8   ar
     5     8     9   ar
     6     9    10    1
     7     9    11   ar
     8    11    12   ar
     9    12     1    1
    10     1     2   ar
    11     2     3   ar
    12     3     4   ar
    13     4    15    1
    14    15    17    1
    15    17    18   ar
    16    18    19   ar
    17    19    20   ar
    18    20    23    1
    19    23    24   ar
    20    24    25   ar
    21    25    26   ar
    22    26    27   ar
    23    20    21   ar
    24    21    22   ar
    25     4     5   ar
    26    12     6   ar
    27     5     1   ar
    28    22    17   ar
    29    27    23   ar
    30    15    16    1
@<TRIPOS>MOLECULE
*****
 27 30 0 0 0
SMALL
GASTEIGER

@<TRIPOS>ATOM
      1 C          62.4632   87.3268   11.3373 C.ar    1  UNL1        0.0927
      2 C          63.0317   86.3844   12.3564 C.ar    1  UNL1        0.0573
      3 S          63.7285   87.2004   13.4046 S.2     1  UNL1       -0.0509
      4 C          63.5906   88.6472   13.0332 C.ar    1  UNL1        0.1635
      5 N          62.8086   88.7253   11.7555 N.ar    1  UNL1       -0.2239
      6 C          60.2887   87.4492    9.9208 C.ar    1  UNL1        0.1401
      7 C          59.5113   87.0612    8.6981 C.ar    1  UNL1        0.0375
      8 C          60.1311   86.1629    7.6690 C.ar    1  UNL1        0.0098
      9 C          61.5282   85.6526    7.8626 C.ar    1  UNL1        0.0348
     10 BR         62.1480   84.7544    6.8336 Br      1  UNL1       -0.0490
     11 C          62.3056   86.0406    9.0854 C.ar    1  UNL1        0.0112
     12 C          61.6858   86.9389   10.1145 C.ar    1  UNL1        0.0527
     13 C          59.7913   89.8365   10.8170 C.3     1  UNL1        0.2525
     14 O          59.6689   88.3474   10.9499 O.3     1  UNL1       -0.4714
     15 N          64.1385   89.8115   13.8041 N.pl3   1  UNL1       -0.2927
     16 H          64.1336   89.7962   14.7885 H       1  UNL1        0.1541
     17 C          64.6938   90.9990   13.0752 C.ar    1  UNL1        0.0498
     18 C          65.7788   91.8237   13.7020 C.ar    1  UNL1        0.0161
     19 C          66.3341   93.0112   12.9731 C.ar    1  UNL1        0.0188
     20 C          65.8044   93.3741   11.6174 C.ar    1  UNL1        0.0656
     21 C          64.7195   92.5495   10.9907 C.ar    1  UNL1        0.0188
     22 C          64.1642   91.3619   11.7196 C.ar    1  UNL1        0.0161
     23 N          66.3598   94.5617   10.8885 N.ar    1  UNL1       -0.2864
     24 C          66.1430   96.0005   11.2530 C.ar    1  UNL1        0.1022
     25 C          66.8786   96.8469   10.2569 C.ar    1  UNL1        0.1196
     26 N          67.5500   95.9313    9.2766 N.ar    1  UNL1       -0.2220
     27 C          67.2293   94.5190    9.6670 C.ar    1  UNL1        0.1828
@<TRIPOS>BOND
     1    13    14    1
     2    14     6    1
     3     6     7   ar
     4     7     8   ar
     5     8     9   ar
     6     9    10    1
     7     9    11   ar
     8    11    12   ar
     9    12     1    1
    10     1     2   ar
    11     2     3   ar
    12     3     4   ar
    13     4    15    1
    14    15    17    1
    15    17    18   ar
    16    18    19   ar
    17    19    20   ar
    18    20    23    1
    19    23    24   ar
    20    24    25   ar
    21    25    26   ar
    22    26    27   ar
    23    20    21   ar
    24    21    22   ar
    25     4     5   ar
    26    12     6   ar
    27     5     1   ar
    28    22    17   ar
    29    27    23   ar
    30    15    16    1
@<TRIPOS>MOLECULE
*****
 27 30 0 0 0
SMALL
GASTEIGER

@<TRIPOS>ATOM
      1 C          64.0326   84.4490   13.6541 C.ar    1  UNL1        0.0927
      2 C          65.3675   84.6612   14.3045 C.ar    1  UNL1        0.0573
      3 S          65.3724   86.0307   14.9165 S.2     1  UNL1       -0.0509
      4 C          64.0406   86.6649   14.6444 C.ar    1  UNL1        0.1635
      5 N          63.2125   85.6873   13.8642 N.ar    1  UNL1       -0.2239
      6 C          63.5616   83.2047   11.4225 C.ar    1  UNL1        0.1401
      7 C          63.1236   81.9708   10.6906 C.ar    1  UNL1        0.0375
      8 C          62.7188   80.7474   11.4583 C.ar    1  UNL1        0.0098
      9 C          62.7518   80.7578   12.9578 C.ar    1  UNL1        0.0348
     10 BR         62.3469   79.5344   13.7255 Br      1  UNL1       -0.0490
     11 C          63.1898   81.9917   13.6898 C.ar    1  UNL1        0.0112
     12 C          63.5947   83.2151   12.9221 C.ar    1  UNL1        0.0527
     13 C          62.9729   85.1217    9.7707 C.3     1  UNL1        0.2525
     14 O          63.9665   84.4281   10.6549 O.3     1  UNL1       -0.4714
     15 N          63.6120   88.0358   15.0766 N.pl3   1  UNL1       -0.2927
     16 H          63.0143   88.1433   15.8515 H       1  UNL1        0.1541
     17 C          64.0941   89.2430   14.3282 C.ar    1  UNL1        0.0498
     18 C          63.4695   89.6100   13.0147 C.ar    1  UNL1        0.0161
     19 C          63.9517   90.8172   12.2663 C.ar    1  UNL1        0.0188
     20 C          65.0584   91.6574   12.8313 C.ar    1  UNL1        0.0656
     21 C          65.6829   91.2904   14.1447 C.ar    1  UNL1        0.0188
     22 C          65.2008   90.0832   14.8932 C.ar    1  UNL1        0.0161
     23 N          65.5406   92.8647   12.0829 N.ar    1  UNL1       -0.2864
     24 C          65.3415   93.1332   10.6206 C.ar    1  UNL1        0.1022
     25 C          65.9844   94.4498   10.2994 C.ar    1  UNL1        0.1196
     26 N          66.5807   94.9951   11.5631 N.ar    1  UNL1       -0.2220
     27 C          66.3064   94.0154   12.6654 C.ar    1  UNL1        0.1828
@<TRIPOS>BOND
     1    13    14    1
     2    14     6    1
     3     6     7   ar
     4     7     8   ar
     5     8     9   ar
     6     9    10    1
     7     9    11   ar
     8    11    12   ar
     9    12     1    1
    10     1     2   ar
    11     2     3   ar
    12     3     4   ar
    13     4    15    1
    14    15    17    1
    15    17    18   ar
    16    18    19   ar
    17    19    20   ar
    18    20    23    1
    19    23    24   ar
    20    24    25   ar
    21    25    26   ar
    22    26    27   ar
    23    20    21   ar
    24    21    22   ar
    25     4     5   ar
    26    12     6   ar
    27     5     1   ar
    28    22    17   ar
    29    27    23   ar
    30    15    16    1
@<TRIPOS>MOLECULE
*****
 27 30 0 0 0
SMALL
GASTEIGER

@<TRIPOS>ATOM
      1 C          63.5851   86.4950   14.3600 C.ar    1  UNL1        0.0927
      2 C          63.4439   86.4165   15.8513 C.ar    1  UNL1        0.0573
      3 S          63.6316   87.7966   16.4079 S.2     1  UNL1       -0.0509
      4 C          63.8887   88.7282   15.2607 C.ar    1  UNL1        0.1635
      5 N          63.8600   87.9237   13.9950 N.ar    1  UNL1       -0.2239
      6 C          62.8927   85.5643   12.0352 C.ar    1  UNL1        0.1401
      7 C          62.7790   84.4158   11.0772 C.ar    1  UNL1        0.0375
      8 C          63.2439   83.0494   11.4857 C.ar    1  UNL1        0.0098
      9 C          63.8225   82.8315   12.8524 C.ar    1  UNL1        0.0348
     10 BR         64.2873   81.4652   13.2609 Br      1  UNL1       -0.0490
     11 C          63.9362   83.9801   13.8104 C.ar    1  UNL1        0.0112
     12 C          63.4713   85.3464   13.4018 C.ar    1  UNL1        0.0527
     13 C          61.1099   87.0974   10.9303 C.3     1  UNL1        0.2525
     14 O          62.4279   86.9307   11.6267 O.3     1  UNL1       -0.4714
     15 N          64.1319   90.2049   15.3615 N.pl3   1  UNL1       -0.2927
     16 H          63.8488   90.6966   16.1660 H       1  UNL1        0.1541
     17 C          64.8066   90.9324   14.2365 C.ar    1  UNL1        0.0498
     18 C          64.0546   91.2182   12.9704 C.ar    1  UNL1        0.0161
     19 C          64.7293   91.9457   11.8455 C.ar    1  UNL1        0.0188
     20 C          66.1559   92.3873   11.9866 C.ar    1  UNL1        0.0656
     21 C          66.9077   92.1015   13.2525 C.ar    1  UNL1        0.0188
     22 C          66.2331   91.3740   14.3776 C.ar    1  UNL1        0.0161
     23 N          66.8306   93.1148   10.8615 N.ar    1  UNL1       -0.2864
     24 C          66.6313   94.5566   10.4987 C.ar    1  UNL1        0.1022
     25 C          67.5005   94.8610    9.3148 C.ar    1  UNL1        0.1196
     26 N          68.2370   93.6075    8.9459 N.ar    1  UNL1       -0.2220
     27 C          67.8230   92.5282    9.9018 C.ar    1  UNL1        0.1828
@<TRIPOS>BOND
     1    13    14    1
     2    14     6    1
     3     6     7   ar
     4     7     8   ar
     5     8     9   ar
     6     9    10    1
     7     9    11   ar
     8    11    12   ar
     9    12     1    1
    10     1     2   ar
    11     2     3   ar
    12     3     4   ar
    13     4    15    1
    14    15    17    1
    15    17    18   ar
    16    18    19   ar
    17    19    20   ar
    18    20    23    1
    19    23    24   ar
    20    24    25   ar
    21    25    26   ar
    22    26    27   ar
    23    20    21   ar
    24    21    22   ar
    25     4     5   ar
    26    12     6   ar
    27     5     1   ar
    28    22    17   ar
    29    27    23   ar
    30    15    16    1
