@<TRIPOS>MOLECULE
*****
 37 41 0 0 0
SMALL
GASTEIGER

@<TRIPOS>ATOM
      1 O          64.3076   86.0894   14.4785 O.2     1  UNL1       -0.2683
      2 C          63.4518   86.6322   13.3727 C.2     1  UNL1        0.2652
      3 C          63.6351   88.0884   13.0628 C.ar    1  UNL1        0.1143
      4 C          64.6025   88.9730   13.7920 C.ar    1  UNL1        0.0248
      5 C          64.5030   90.3504   13.2064 C.ar    1  UNL1        0.0366
      6 C          63.4741   90.3171   12.1154 C.ar    1  UNL1        0.0775
      7 N          62.9377   88.9191   12.0267 N.ar    1  UNL1       -0.3224
      8 C          61.8848   88.4988   11.0445 C.3     1  UNL1        0.1080
      9 C          61.2692   87.1440   10.8559 C.3     1  UNL1        0.0460
     10 C          61.5545   85.8749   11.6029 C.3     1  UNL1        0.0961
     11 N          62.5258   85.6471   12.7229 N.am    1  UNL1       -0.2702
     12 C          65.2935   91.5504   13.6364 C.ar    1  UNL1        0.0872
     13 C          66.0802   91.5123   14.9130 C.ar    1  UNL1        0.0400
     14 C          66.8708   92.7124   15.3428 C.ar    1  UNL1        0.1034
     15 N          66.8747   93.9506   14.4962 N.ar    1  UNL1       -0.2123
     16 C          66.0880   93.9888   13.2196 C.ar    1  UNL1        0.2168
     17 N          65.2975   92.7886   12.7897 N.ar    1  UNL1       -0.2138
     18 N          66.0919   95.2269   12.3729 N.pl3   1  UNL1       -0.3044
     19 H          65.7079   96.0634   12.7223 H       1  UNL1        0.1496
     20 C          66.6809   95.1905   10.9939 C.3     1  UNL1        0.0771
     21 C          66.9416   96.3778   10.1149 C.3     1  UNL1        0.0517
     22 C          67.5344   95.8815    8.8295 C.3     1  UNL1        0.1446
     23 O          67.9488   96.7302    7.6641 O.3     1  UNL1       -0.3816
     24 C          67.6402   94.3876    8.9140 C.3     1  UNL1        0.1892
     25 F          68.1788   93.4802    7.8480 F       1  UNL1       -0.2346
     26 C          67.1126   93.9606   10.2517 C.3     1  UNL1        0.0574
     27 H          68.3013   96.1632    6.9604 H       1  UNL1        0.2105
     28 C          62.5782   84.2495   13.2650 C.3     1  UNL1        0.1274
     29 C          62.8709   83.0996   12.3472 C.ar    1  UNL1       -0.0018
     30 C          63.6705   83.3221   11.0978 C.ar    1  UNL1       -0.0026
     31 C          63.9632   82.1723   10.1800 C.ar    1  UNL1       -0.0003
     32 C          63.4563   80.8000   10.5117 C.ar    1  UNL1       -0.0000
     33 C          62.6567   80.5776   11.7612 C.ar    1  UNL1       -0.0003
     34 C          62.3640   81.7274   12.6789 C.ar    1  UNL1       -0.0026
     35 C          62.3378   84.0016   14.7247 C.3     1  UNL1        0.1614
     36 O          63.4257   83.4154   15.5749 O.3     1  UNL1       -0.3799
     37 H          63.6098   82.5084   15.2844 H       1  UNL1        0.2105
@<TRIPOS>BOND
     1     1     2    2
     2     2     3    1
     3     3     4   ar
     4     4     5   ar
     5     5    12    1
     6    12    13   ar
     7    13    14   ar
     8    14    15   ar
     9    15    16   ar
    10    16    18    1
    11    20    18    1
    12    20    21    1
    13    21    22    1
    14    22    23    1
    15    22    24    1
    16    24    25    1
    17    24    26    1
    18    16    17   ar
    19     5     6   ar
    20     6     7   ar
    21     7     8    1
    22     8     9    1
    23     9    10    1
    24    10    11    1
    25    11    28    1
    26    28    35    1
    27    35    36    1
    28    28    29    1
    29    29    30   ar
    30    30    31   ar
    31    31    32   ar
    32    32    33   ar
    33    33    34   ar
    34    11     2   am
    35    34    29   ar
    36     7     3   ar
    37    17    12   ar
    38    26    20    1
    39    18    19    1
    40    23    27    1
    41    36    37    1
@<TRIPOS>MOLECULE
*****
 37 41 0 0 0
SMALL
GASTEIGER

@<TRIPOS>ATOM
      1 O          64.5210   92.5536   10.4235 O.2     1  UNL1       -0.2683
      2 C          64.4401   91.5626   11.5464 C.2     1  UNL1        0.2652
      3 C          63.4809   90.4271   11.3445 C.ar    1  UNL1        0.1143
      4 C          62.6420   90.2634   10.1118 C.ar    1  UNL1        0.0248
      5 C          61.8164   89.0217   10.2746 C.ar    1  UNL1        0.0366
      6 C          62.1450   88.4180   11.6079 C.ar    1  UNL1        0.0775
      7 N          63.1737   89.2866   12.2691 N.ar    1  UNL1       -0.3224
      8 C          63.7498   88.9999   13.6240 C.3     1  UNL1        0.1080
      9 C          64.7754   89.7828   14.3890 C.3     1  UNL1        0.0460
     10 C          65.4782   91.0459   13.9880 C.3     1  UNL1        0.0961
     11 N          65.3290   91.8379   12.7229 N.am    1  UNL1       -0.2702
     12 C          60.8345   88.4789    9.2789 C.ar    1  UNL1        0.0872
     13 C          60.5851   87.0019    9.2001 C.ar    1  UNL1        0.0400
     14 C          59.6032   86.4592    8.2044 C.ar    1  UNL1        0.1034
     15 N          58.8707   87.3934    7.2876 N.ar    1  UNL1       -0.2123
     16 C          59.1201   88.8704    7.3664 C.ar    1  UNL1        0.2168
     17 N          60.1020   89.4131    8.3621 N.ar    1  UNL1       -0.2138
     18 N          58.3877   89.8047    6.4496 N.pl3   1  UNL1       -0.3044
     19 H          57.4043   89.8456    6.4714 H       1  UNL1        0.1496
     20 C          59.1536   90.6769    5.4995 C.3     1  UNL1        0.0771
     21 C          58.5933   91.8181    4.7035 C.3     1  UNL1        0.0517
     22 C          59.7078   92.4075    3.8906 C.3     1  UNL1        0.1446
     23 O          59.5933   93.5697    2.9493 O.3     1  UNL1       -0.3816
     24 C          60.9568   91.6304    4.1842 C.3     1  UNL1        0.1892
     25 F          62.3106   91.8793    3.5881 F       1  UNL1       -0.2346
     26 C          60.6143   90.5608    5.1786 C.3     1  UNL1        0.0574
     27 H          60.4592   93.7495    2.5508 H       1  UNL1        0.2105
     28 C          66.1813   93.0680   12.6208 C.3     1  UNL1        0.1274
     29 C          66.8151   93.4346   11.3116 C.ar    1  UNL1       -0.0018
     30 C          67.6623   92.4345   10.5824 C.ar    1  UNL1       -0.0026
     31 C          68.2961   92.8010    9.2732 C.ar    1  UNL1       -0.0003
     32 C          68.0826   94.1678    8.6932 C.ar    1  UNL1       -0.0000
     33 C          67.2353   95.1680    9.4225 C.ar    1  UNL1       -0.0003
     34 C          66.6016   94.8014   10.7316 C.ar    1  UNL1       -0.0026
     35 C          66.3998   93.9315   13.8277 C.3     1  UNL1        0.1614
     36 O          67.6384   93.7620   14.6567 O.3     1  UNL1       -0.3799
     37 H          67.6267   92.8899   15.0810 H       1  UNL1        0.2105
@<TRIPOS>BOND
     1     1     2    2
     2     2     3    1
     3     3     4   ar
     4     4     5   ar
     5     5    12    1
     6    12    13   ar
     7    13    14   ar
     8    14    15   ar
     9    15    16   ar
    10    16    18    1
    11    20    18    1
    12    20    21    1
    13    21    22    1
    14    22    23    1
    15    22    24    1
    16    24    25    1
    17    24    26    1
    18    16    17   ar
    19     5     6   ar
    20     6     7   ar
    21     7     8    1
    22     8     9    1
    23     9    10    1
    24    10    11    1
    25    11    28    1
    26    28    35    1
    27    35    36    1
    28    28    29    1
    29    29    30   ar
    30    30    31   ar
    31    31    32   ar
    32    32    33   ar
    33    33    34   ar
    34    11     2   am
    35    34    29   ar
    36     7     3   ar
    37    17    12   ar
    38    26    20    1
    39    18    19    1
    40    23    27    1
    41    36    37    1
@<TRIPOS>MOLECULE
*****
 37 41 0 0 0
SMALL
GASTEIGER

@<TRIPOS>ATOM
      1 O          61.7850   89.1712    9.7481 O.2     1  UNL1       -0.2683
      2 C          62.1464   88.1338   10.7694 C.2     1  UNL1        0.2652
      3 C          63.0116   88.6071   11.8997 C.ar    1  UNL1        0.1143
      4 C          63.5010   90.0189   12.0306 C.ar    1  UNL1        0.0248
      5 C          64.3309   90.1081   13.2769 C.ar    1  UNL1        0.0366
      6 C          64.3543   88.7514   13.9163 C.ar    1  UNL1        0.0775
      7 N          63.5390   87.8237   13.0652 N.ar    1  UNL1       -0.3224
      8 C          63.3315   86.3737   13.3881 C.3     1  UNL1        0.1080
      9 C          62.5453   85.3488   12.6255 C.3     1  UNL1        0.0460
     10 C          61.7725   85.5209   11.3514 C.3     1  UNL1        0.0961
     11 N          61.5950   86.7603   10.5254 N.am    1  UNL1       -0.2702
     12 C          65.0169   91.3381   13.7932 C.ar    1  UNL1        0.0872
     13 C          65.3727   91.4443   15.2465 C.ar    1  UNL1        0.0400
     14 C          66.0587   92.6743   15.7627 C.ar    1  UNL1        0.1034
     15 N          66.3889   93.7981   14.8258 N.ar    1  UNL1       -0.2123
     16 C          66.0330   93.6920   13.3725 C.ar    1  UNL1        0.2168
     17 N          65.3470   92.4619   12.8562 N.ar    1  UNL1       -0.2138
     18 N          66.3632   94.8157   12.4354 N.pl3   1  UNL1       -0.3044
     19 H          66.3035   95.7484   12.7449 H       1  UNL1        0.1496
     20 C          66.7842   94.5184   11.0267 C.3     1  UNL1        0.0771
     21 C          67.6049   93.3446   10.5810 C.3     1  UNL1        0.0517
     22 C          67.7864   93.4434    9.0953 C.3     1  UNL1        0.1446
     23 O          68.5434   92.4770    8.2333 O.3     1  UNL1       -0.3816
     24 C          67.0779   94.6783    8.6228 C.3     1  UNL1        0.1892
     25 F          67.0022   95.1635    7.2055 F       1  UNL1       -0.2346
     26 C          66.4585   95.3427    9.8166 C.3     1  UNL1        0.0574
     27 H          68.5081   92.7712    7.3097 H       1  UNL1        0.2105
     28 C          60.7550   86.6059    9.2923 C.3     1  UNL1        0.1274
     29 C          61.2572   85.7867    8.1405 C.ar    1  UNL1       -0.0018
     30 C          62.7178   85.4634    8.0306 C.ar    1  UNL1       -0.0026
     31 C          63.2201   84.6442    6.8788 C.ar    1  UNL1       -0.0003
     32 C          62.2617   84.1483    5.8368 C.ar    1  UNL1       -0.0000
     33 C          60.8011   84.4716    5.9467 C.ar    1  UNL1       -0.0003
     34 C          60.2989   85.2908    7.0985 C.ar    1  UNL1       -0.0026
     35 C          59.4128   87.2707    9.2110 C.3     1  UNL1        0.1614
     36 O          59.2269   88.4818    8.3458 O.3     1  UNL1       -0.3799
     37 H          59.7508   89.2167    8.7014 H       1  UNL1        0.2105
@<TRIPOS>BOND
     1     1     2    2
     2     2     3    1
     3     3     4   ar
     4     4     5   ar
     5     5    12    1
     6    12    13   ar
     7    13    14   ar
     8    14    15   ar
     9    15    16   ar
    10    16    18    1
    11    20    18    1
    12    20    21    1
    13    21    22    1
    14    22    23    1
    15    22    24    1
    16    24    25    1
    17    24    26    1
    18    16    17   ar
    19     5     6   ar
    20     6     7   ar
    21     7     8    1
    22     8     9    1
    23     9    10    1
    24    10    11    1
    25    11    28    1
    26    28    35    1
    27    35    36    1
    28    28    29    1
    29    29    30   ar
    30    30    31   ar
    31    31    32   ar
    32    32    33   ar
    33    33    34   ar
    34    11     2   am
    35    34    29   ar
    36     7     3   ar
    37    17    12   ar
    38    26    20    1
    39    18    19    1
    40    23    27    1
    41    36    37    1
@<TRIPOS>MOLECULE
*****
 37 41 0 0 0
SMALL
GASTEIGER

@<TRIPOS>ATOM
      1 O          64.4142   85.3043   12.8973 O.2     1  UNL1       -0.2683
      2 C          63.3154   86.0102   12.1595 C.2     1  UNL1        0.2652
      3 C          63.1556   87.4690   12.4701 C.ar    1  UNL1        0.1143
      4 C          64.0212   88.2050   13.4494 C.ar    1  UNL1        0.0248
      5 C          63.5632   89.6328   13.4911 C.ar    1  UNL1        0.0366
      6 C          62.4145   89.7792   12.5376 C.ar    1  UNL1        0.0775
      7 N          62.1626   88.4419   11.9065 N.ar    1  UNL1       -0.3224
      8 C          61.0843   88.1963   10.8933 C.3     1  UNL1        0.1080
      9 C          60.7324   86.9171   10.1933 C.3     1  UNL1        0.0460
     10 C          61.3721   85.5676   10.3337 C.3     1  UNL1        0.0961
     11 N          62.5216   85.1640   11.2087 N.am    1  UNL1       -0.2702
     12 C          64.1506   90.7228   14.3377 C.ar    1  UNL1        0.0872
     13 C          63.8510   90.7756   15.8065 C.ar    1  UNL1        0.0400
     14 C          64.4385   91.8656   16.6531 C.ar    1  UNL1        0.1034
     15 N          65.3256   92.9029   16.0309 N.ar    1  UNL1       -0.2123
     16 C          65.6253   92.8501   14.5621 C.ar    1  UNL1        0.2168
     17 N          65.0377   91.7600   13.7155 N.ar    1  UNL1       -0.2138
     18 N          66.5123   93.8873   13.9398 N.pl3   1  UNL1       -0.3044
     19 H          67.0169   94.5104   14.5111 H       1  UNL1        0.1496
     20 C          66.6306   93.9751   12.4470 C.3     1  UNL1        0.0771
     21 C          66.1043   95.0838   11.5846 C.3     1  UNL1        0.0517
     22 C          66.4443   94.7635   10.1592 C.3     1  UNL1        0.1446
     23 O          66.1071   95.6026    8.9624 O.3     1  UNL1       -0.3816
     24 C          67.1808   93.4569   10.1406 C.3     1  UNL1        0.1892
     25 F          67.7093   92.7599    8.9220 F       1  UNL1       -0.2346
     26 C          67.2959   92.9696   11.5546 C.3     1  UNL1        0.0574
     27 H          66.4400   95.1704    8.1604 H       1  UNL1        0.2105
     28 C          62.9317   83.7238   11.1214 C.3     1  UNL1        0.1274
     29 C          62.5672   82.7723   12.2223 C.ar    1  UNL1       -0.0018
     30 C          62.2310   83.2971   13.5865 C.ar    1  UNL1       -0.0026
     31 C          61.8665   82.3457   14.6874 C.ar    1  UNL1       -0.0003
     32 C          61.8382   80.8692   14.4238 C.ar    1  UNL1       -0.0000
     33 C          62.1745   80.3444   13.0595 C.ar    1  UNL1       -0.0003
     34 C          62.5390   81.2959   11.9587 C.ar    1  UNL1       -0.0026
     35 C          63.7063   83.2351    9.9335 C.3     1  UNL1        0.1614
     36 O          64.8966   82.3436   10.1294 O.3     1  UNL1       -0.3799
     37 H          65.5960   82.8344   10.5886 H       1  UNL1        0.2105
@<TRIPOS>BOND
     1     1     2    2
     2     2     3    1
     3     3     4   ar
     4     4     5   ar
     5     5    12    1
     6    12    13   ar
     7    13    14   ar
     8    14    15   ar
     9    15    16   ar
    10    16    18    1
    11    20    18    1
    12    20    21    1
    13    21    22    1
    14    22    23    1
    15    22    24    1
    16    24    25    1
    17    24    26    1
    18    16    17   ar
    19     5     6   ar
    20     6     7   ar
    21     7     8    1
    22     8     9    1
    23     9    10    1
    24    10    11    1
    25    11    28    1
    26    28    35    1
    27    35    36    1
    28    28    29    1
    29    29    30   ar
    30    30    31   ar
    31    31    32   ar
    32    32    33   ar
    33    33    34   ar
    34    11     2   am
    35    34    29   ar
    36     7     3   ar
    37    17    12   ar
    38    26    20    1
    39    18    19    1
    40    23    27    1
    41    36    37    1
@<TRIPOS>MOLECULE
*****
 37 41 0 0 0
SMALL
GASTEIGER

@<TRIPOS>ATOM
      1 O          64.6333   86.0094   13.2377 O.2     1  UNL1       -0.2683
      2 C          63.9253   86.3156   14.5241 C.2     1  UNL1        0.2652
      3 C          64.0453   87.7288   15.0126 C.ar    1  UNL1        0.1143
      4 C          64.8154   88.7916   14.2863 C.ar    1  UNL1        0.0248
      5 C          64.7065   90.0632   15.0744 C.ar    1  UNL1        0.0366
      6 C          63.8692   89.7863   16.2878 C.ar    1  UNL1        0.0775
      7 N          63.4605   88.3436   16.2495 N.ar    1  UNL1       -0.3224
      8 C          62.6114   87.6971   17.3035 C.3     1  UNL1        0.1080
      9 C          62.1373   86.2761   17.3809 C.3     1  UNL1        0.0460
     10 C          62.3953   85.1506   16.4234 C.3     1  UNL1        0.0961
     11 N          63.1910   85.1682   15.1520 N.am    1  UNL1       -0.2702
     12 C          65.3263   91.3804   14.7128 C.ar    1  UNL1        0.0872
     13 C          66.2737   92.0498   15.6637 C.ar    1  UNL1        0.0400
     14 C          66.8934   93.3671   15.3019 C.ar    1  UNL1        0.1034
     15 N          66.5657   94.0150   13.9893 N.ar    1  UNL1       -0.2123
     16 C          65.6182   93.3456   13.0384 C.ar    1  UNL1        0.2168
     17 N          64.9985   92.0283   13.4002 N.ar    1  UNL1       -0.2138
     18 N          65.2905   93.9933   11.7258 N.pl3   1  UNL1       -0.3044
     19 H          64.4233   94.4425   11.6015 H       1  UNL1        0.1496
     20 C          66.2840   93.9567   10.6027 C.3     1  UNL1        0.0771
     21 C          67.0828   92.7628   10.1708 C.3     1  UNL1        0.0517
     22 C          67.9457   93.1757    9.0154 C.3     1  UNL1        0.1446
     23 O          68.9055   92.2943    8.2726 O.3     1  UNL1       -0.3816
     24 C          67.6802   94.6248    8.7332 C.3     1  UNL1        0.1892
     25 F          68.3280   95.4469    7.6586 F       1  UNL1       -0.2346
     26 C          66.6532   95.1075    9.7142 C.3     1  UNL1        0.0574
     27 H          69.3375   92.8060    7.5708 H       1  UNL1        0.2105
     28 C          63.2618   83.8663   14.4104 C.3     1  UNL1        0.1274
     29 C          63.3392   83.8598   12.9124 C.ar    1  UNL1       -0.0018
     30 C          62.4172   84.7293   12.1100 C.ar    1  UNL1       -0.0026
     31 C          62.4945   84.7229   10.6120 C.ar    1  UNL1       -0.0003
     32 C          63.4939   83.8468    9.9164 C.ar    1  UNL1       -0.0000
     33 C          64.4159   82.9773   10.7188 C.ar    1  UNL1       -0.0003
     34 C          64.3385   82.9838   12.2167 C.ar    1  UNL1       -0.0026
     35 C          63.2553   82.5710   15.1667 C.3     1  UNL1        0.1614
     36 O          62.1917   81.5489   14.8944 O.3     1  UNL1       -0.3799
     37 H          61.3291   81.8998   15.1659 H       1  UNL1        0.2105
@<TRIPOS>BOND
     1     1     2    2
     2     2     3    1
     3     3     4   ar
     4     4     5   ar
     5     5    12    1
     6    12    13   ar
     7    13    14   ar
     8    14    15   ar
     9    15    16   ar
    10    16    18    1
    11    20    18    1
    12    20    21    1
    13    21    22    1
    14    22    23    1
    15    22    24    1
    16    24    25    1
    17    24    26    1
    18    16    17   ar
    19     5     6   ar
    20     6     7   ar
    21     7     8    1
    22     8     9    1
    23     9    10    1
    24    10    11    1
    25    11    28    1
    26    28    35    1
    27    35    36    1
    28    28    29    1
    29    29    30   ar
    30    30    31   ar
    31    31    32   ar
    32    32    33   ar
    33    33    34   ar
    34    11     2   am
    35    34    29   ar
    36     7     3   ar
    37    17    12   ar
    38    26    20    1
    39    18    19    1
    40    23    27    1
    41    36    37    1
