@<TRIPOS>MOLECULE
*****
 26 29 0 0 0
SMALL
GASTEIGER

@<TRIPOS>ATOM
      1 N          64.1124   91.6263   12.1502 N.am    1  UNL1       -0.2707
      2 C          65.3819   92.3073   12.5681 C.2     1  UNL1        0.2686
      3 O          65.6813   92.5075   14.0242 O.2     1  UNL1       -0.2682
      4 C          66.3520   92.7879   11.5299 C.ar    1  UNL1        0.1535
      5 C          66.1996   94.0159   10.6821 C.ar    1  UNL1        0.1012
      6 N          67.3981   94.1120    9.7855 N.ar    1  UNL1       -0.3057
      7 C          67.6579   95.1878    8.7730 C.3     1  UNL1        0.1321
      8 C          68.2915   92.9433   10.0791 C.ar    1  UNL1        0.1787
      9 N          67.6449   92.1250   11.1572 N.ar    1  UNL1       -0.2192
     10 C          63.8130   91.4260   10.6941 C.3     1  UNL1        0.0941
     11 C          59.4159   86.8631    8.8227 C.3     1  UNL1        0.0896
     12 N          60.4141   87.8990    9.2475 N.3     1  UNL1       -0.2715
     13 C          60.1604   89.3730    9.3627 C.3     1  UNL1        0.0722
     14 C          61.4308   90.0277    9.8182 C.3     1  UNL1        0.0191
     15 C          62.4697   88.9585    9.9845 C.3     1  UNL1        0.0191
     16 C          61.8412   87.6428    9.6318 C.3     1  UNL1        0.0722
     17 C          62.8148   90.3902   10.2693 C.3     1  UNL1        0.0226
     18 C          63.1423   91.1456   13.1884 C.3     1  UNL1        0.1205
     19 C          63.4038   89.8642   13.9230 C.ar    1  UNL1       -0.0000
     20 C          63.8420   88.6435   13.1693 C.ar    1  UNL1       -0.0016
     21 C          64.1035   87.3621   13.9040 C.ar    1  UNL1        0.0134
     22 C          63.9268   87.3014   15.3923 C.ar    1  UNL1        0.0850
     23 CL         64.1882   86.0200   16.1270 Cl      1  UNL1       -0.0799
     24 C          63.4886   88.5221   16.1460 C.ar    1  UNL1        0.1503
     25 F          63.3119   88.4614   17.6343 F       1  UNL1       -0.2033
     26 C          63.2271   89.8034   15.4113 C.ar    1  UNL1        0.0279
@<TRIPOS>BOND
     1    11    12    1
     2    12    13    1
     3    14    13    1
     4    14    15    1
     5    15    16    1
     6    15    17    1
     7    17    10    1
     8    10     1    1
     9     1    18    1
    10    18    19    1
    11    19    20   ar
    12    20    21   ar
    13    21    22   ar
    14    22    23    1
    15    22    24   ar
    16    24    25    1
    17    24    26   ar
    18     1     2   am
    19     2     3    2
    20     2     4    1
    21     4     5   ar
    22     5     6   ar
    23     6     7    1
    24     6     8   ar
    25     8     9   ar
    26    16    12    1
    27    26    19   ar
    28     9     4   ar
    29    17    14    1
@<TRIPOS>MOLECULE
*****
 26 29 0 0 0
SMALL
GASTEIGER

@<TRIPOS>ATOM
      1 N          64.5563   91.5026   13.5750 N.am    1  UNL1       -0.2707
      2 C          66.0319   91.7728   13.5712 C.2     1  UNL1        0.2686
      3 O          66.8284   91.6044   14.8310 O.2     1  UNL1       -0.2682
      4 C          66.7108   92.2114   12.3076 C.ar    1  UNL1        0.1535
      5 C          66.2444   93.3015   11.3888 C.ar    1  UNL1        0.1012
      6 N          67.2206   93.4007   10.2543 N.ar    1  UNL1       -0.3057
      7 C          67.1411   94.3602    9.1040 C.3     1  UNL1        0.1321
      8 C          68.2903   92.3719   10.4719 C.ar    1  UNL1        0.1787
      9 N          67.9752   91.6369   11.7409 N.ar    1  UNL1       -0.2192
     10 C          63.7598   91.6711   12.3152 C.3     1  UNL1        0.0941
     11 C          60.8636   86.4350    9.5130 C.3     1  UNL1        0.0896
     12 N          61.5211   87.6237   10.1492 N.3     1  UNL1       -0.2715
     13 C          62.3972   87.6002   11.3666 C.3     1  UNL1        0.0722
     14 C          62.8355   89.0066   11.6495 C.3     1  UNL1        0.0191
     15 C          62.2303   89.8993   10.6069 C.3     1  UNL1        0.0191
     16 C          61.4180   89.0446    9.6796 C.3     1  UNL1        0.0722
     17 C          63.1023   90.4824   11.6791 C.3     1  UNL1        0.0226
     18 C          63.8775   91.0641   14.8386 C.3     1  UNL1        0.1205
     19 C          63.8548   89.6115   15.2126 C.ar    1  UNL1       -0.0000
     20 C          64.4969   88.5958   14.3149 C.ar    1  UNL1       -0.0016
     21 C          64.4743   87.1433   14.6889 C.ar    1  UNL1        0.0134
     22 C          63.8095   86.7066   15.9606 C.ar    1  UNL1        0.0850
     23 CL         63.7869   85.2542   16.3346 Cl      1  UNL1       -0.0799
     24 C          63.1674   87.7224   16.8584 C.ar    1  UNL1        0.1503
     25 F          62.5026   87.2857   18.1302 F       1  UNL1       -0.2033
     26 C          63.1900   89.1748   16.4844 C.ar    1  UNL1        0.0279
@<TRIPOS>BOND
     1    11    12    1
     2    12    13    1
     3    14    13    1
     4    14    15    1
     5    15    16    1
     6    15    17    1
     7    17    10    1
     8    10     1    1
     9     1    18    1
    10    18    19    1
    11    19    20   ar
    12    20    21   ar
    13    21    22   ar
    14    22    23    1
    15    22    24   ar
    16    24    25    1
    17    24    26   ar
    18     1     2   am
    19     2     3    2
    20     2     4    1
    21     4     5   ar
    22     5     6   ar
    23     6     7    1
    24     6     8   ar
    25     8     9   ar
    26    16    12    1
    27    26    19   ar
    28     9     4   ar
    29    17    14    1
@<TRIPOS>MOLECULE
*****
 26 29 0 0 0
SMALL
GASTEIGER

@<TRIPOS>ATOM
      1 N          63.9884   91.3154   12.0578 N.am    1  UNL1       -0.2707
      2 C          65.2393   92.0346   12.4681 C.2     1  UNL1        0.2686
      3 O          65.6860   92.0051   13.8997 O.2     1  UNL1       -0.2682
      4 C          66.0433   92.7832   11.4467 C.ar    1  UNL1        0.1535
      5 C          65.9453   94.2503   11.1500 C.ar    1  UNL1        0.1012
      6 N          66.9279   94.5699   10.0627 N.ar    1  UNL1       -0.3057
      7 C          67.1638   95.9218    9.4570 C.3     1  UNL1        0.1321
      8 C          67.6331   93.3003    9.6874 C.ar    1  UNL1        0.1787
      9 N          67.0864   92.1961   10.5427 N.ar    1  UNL1       -0.2192
     10 C          63.5417   91.3449   10.6262 C.3     1  UNL1        0.0941
     11 C          59.3555   86.7543    8.3769 C.3     1  UNL1        0.0896
     12 N          60.3058   87.7964    8.8875 N.3     1  UNL1       -0.2715
     13 C          61.7145   87.5572    9.3443 C.3     1  UNL1        0.0722
     14 C          62.2937   88.8737    9.7701 C.3     1  UNL1        0.0191
     15 C          61.2430   89.9267    9.5766 C.3     1  UNL1        0.0191
     16 C          60.0144   89.2608    9.0311 C.3     1  UNL1        0.0722
     17 C          62.5913   90.3027   10.1156 C.3     1  UNL1        0.0226
     18 C          63.1844   90.5668   13.0792 C.3     1  UNL1        0.1205
     19 C          63.5480   89.1549   13.4320 C.ar    1  UNL1       -0.0000
     20 C          64.3304   88.8714   14.6800 C.ar    1  UNL1       -0.0016
     21 C          64.6940   87.4595   15.0328 C.ar    1  UNL1        0.0134
     22 C          64.2751   86.3312   14.1377 C.ar    1  UNL1        0.0850
     23 CL         64.6386   84.9193   14.4904 Cl      1  UNL1       -0.0799
     24 C          63.4927   86.6147   12.8896 C.ar    1  UNL1        0.1503
     25 F          63.0738   85.4863   11.9945 F       1  UNL1       -0.2033
     26 C          63.1291   88.0265   12.5369 C.ar    1  UNL1        0.0279
@<TRIPOS>BOND
     1    11    12    1
     2    12    13    1
     3    14    13    1
     4    14    15    1
     5    15    16    1
     6    15    17    1
     7    17    10    1
     8    10     1    1
     9     1    18    1
    10    18    19    1
    11    19    20   ar
    12    20    21   ar
    13    21    22   ar
    14    22    23    1
    15    22    24   ar
    16    24    25    1
    17    24    26   ar
    18     1     2   am
    19     2     3    2
    20     2     4    1
    21     4     5   ar
    22     5     6   ar
    23     6     7    1
    24     6     8   ar
    25     8     9   ar
    26    16    12    1
    27    26    19   ar
    28     9     4   ar
    29    17    14    1
@<TRIPOS>MOLECULE
*****
 26 29 0 0 0
SMALL
GASTEIGER

@<TRIPOS>ATOM
      1 N          63.7911   89.9188   14.3069 N.am    1  UNL1       -0.2707
      2 C          63.5219   89.5490   15.7355 C.2     1  UNL1        0.2686
      3 O          63.4354   90.6186   16.7835 O.2     1  UNL1       -0.2682
      4 C          63.3391   88.1096   16.1160 C.ar    1  UNL1        0.1535
      5 C          63.9315   86.9281   15.4068 C.ar    1  UNL1        0.1012
      6 N          63.4903   85.6874   16.1250 N.ar    1  UNL1       -0.3057
      7 C          63.8509   84.2791   15.7551 C.3     1  UNL1        0.1321
      8 C          62.6252   86.1021   17.2781 C.ar    1  UNL1        0.1787
      9 N          62.5317   87.5991   17.2725 N.ar    1  UNL1       -0.2192
     10 C          63.8776   88.8491   13.2589 C.3     1  UNL1        0.0941
     11 C          59.7912   88.9720    8.0682 C.3     1  UNL1        0.0896
     12 N          60.7188   88.9441    9.2466 N.3     1  UNL1       -0.2715
     13 C          60.8877   90.0354   10.2618 C.3     1  UNL1        0.0722
     14 C          61.9138   89.5858   11.2594 C.3     1  UNL1        0.0191
     15 C          62.3791   88.2166   10.8606 C.3     1  UNL1        0.0191
     16 C          61.6406   87.8201    9.6167 C.3     1  UNL1        0.0722
     17 C          62.9499   88.8770   12.0805 C.3     1  UNL1        0.0226
     18 C          63.9739   91.3581   13.9264 C.3     1  UNL1        0.1205
     19 C          65.0135   91.7403   12.9148 C.ar    1  UNL1       -0.0000
     20 C          64.5970   92.2698   11.5746 C.ar    1  UNL1       -0.0016
     21 C          65.6365   92.6519   10.5630 C.ar    1  UNL1        0.0134
     22 C          67.0927   92.5045   10.8916 C.ar    1  UNL1        0.0850
     23 CL         68.1322   92.8866    9.8801 Cl      1  UNL1       -0.0799
     24 C          67.5092   91.9750   12.2319 C.ar    1  UNL1        0.1503
     25 F          68.9653   91.8275   12.5605 F       1  UNL1       -0.2033
     26 C          66.4696   91.5929   13.2434 C.ar    1  UNL1        0.0279
@<TRIPOS>BOND
     1    11    12    1
     2    12    13    1
     3    14    13    1
     4    14    15    1
     5    15    16    1
     6    15    17    1
     7    17    10    1
     8    10     1    1
     9     1    18    1
    10    18    19    1
    11    19    20   ar
    12    20    21   ar
    13    21    22   ar
    14    22    23    1
    15    22    24   ar
    16    24    25    1
    17    24    26   ar
    18     1     2   am
    19     2     3    2
    20     2     4    1
    21     4     5   ar
    22     5     6   ar
    23     6     7    1
    24     6     8   ar
    25     8     9   ar
    26    16    12    1
    27    26    19   ar
    28     9     4   ar
    29    17    14    1
@<TRIPOS>MOLECULE
*****
 26 29 0 0 0
SMALL
GASTEIGER

@<TRIPOS>ATOM
      1 N          63.8531   89.4131   14.6557 N.am    1  UNL1       -0.2707
      2 C          63.4791   88.7457   15.9460 C.2     1  UNL1        0.2686
      3 O          63.2627   89.5689   17.1811 O.2     1  UNL1       -0.2682
      4 C          63.3216   87.2550   16.0011 C.ar    1  UNL1        0.1535
      5 C          64.1716   86.2513   15.2800 C.ar    1  UNL1        0.1012
      6 N          63.6618   84.8823   15.6202 N.ar    1  UNL1       -0.3057
      7 C          64.2193   83.5836   15.1173 C.3     1  UNL1        0.1321
      8 C          62.4966   85.0399   16.5516 C.ar    1  UNL1        0.1787
      9 N          62.2864   86.5062   16.7870 N.ar    1  UNL1       -0.2192
     10 C          64.0695   88.5899   13.4207 C.3     1  UNL1        0.0941
     11 C          59.9044   89.1283    8.3198 C.3     1  UNL1        0.0896
     12 N          60.8500   89.0061    9.4778 N.3     1  UNL1       -0.2715
     13 C          61.2760   90.1185   10.3894 C.3     1  UNL1        0.0722
     14 C          62.2249   89.5500   11.4026 C.3     1  UNL1        0.0191
     15 C          62.3853   88.0861   11.1171 C.3     1  UNL1        0.0191
     16 C          61.5355   87.7500    9.9275 C.3     1  UNL1        0.0722
     17 C          63.1240   88.7122   12.2627 C.3     1  UNL1        0.0226
     18 C          64.0106   90.9038   14.6006 C.3     1  UNL1        0.1205
     19 C          65.3600   91.5238   14.8126 C.ar    1  UNL1       -0.0000
     20 C          65.6318   92.3231   16.0524 C.ar    1  UNL1       -0.0016
     21 C          66.9812   92.9430   16.2644 C.ar    1  UNL1        0.0134
     22 C          68.0588   92.7636   15.2365 C.ar    1  UNL1        0.0850
     23 CL         69.4081   93.3834   15.4484 Cl      1  UNL1       -0.0799
     24 C          67.7870   91.9641   13.9966 C.ar    1  UNL1        0.1503
     25 F          68.8646   91.7847   12.9687 F       1  UNL1       -0.2033
     26 C          66.4376   91.3443   13.7847 C.ar    1  UNL1        0.0279
@<TRIPOS>BOND
     1    11    12    1
     2    12    13    1
     3    14    13    1
     4    14    15    1
     5    15    16    1
     6    15    17    1
     7    17    10    1
     8    10     1    1
     9     1    18    1
    10    18    19    1
    11    19    20   ar
    12    20    21   ar
    13    21    22   ar
    14    22    23    1
    15    22    24   ar
    16    24    25    1
    17    24    26   ar
    18     1     2   am
    19     2     3    2
    20     2     4    1
    21     4     5   ar
    22     5     6   ar
    23     6     7    1
    24     6     8   ar
    25     8     9   ar
    26    16    12    1
    27    26    19   ar
    28     9     4   ar
    29    17    14    1
@<TRIPOS>MOLECULE
*****
 26 29 0 0 0
SMALL
GASTEIGER

@<TRIPOS>ATOM
      1 N          62.0655   88.3845   11.4358 N.am    1  UNL1       -0.2707
      2 C          62.0720   89.8111   10.9722 C.2     1  UNL1        0.2686
      3 O          60.9730   90.3164   10.0852 O.2     1  UNL1       -0.2682
      4 C          63.1775   90.7323   11.3957 C.ar    1  UNL1        0.1535
      5 C          63.9714   91.6299   10.4935 C.ar    1  UNL1        0.1012
      6 N          64.9676   92.3699   11.3358 N.ar    1  UNL1       -0.3057
      7 C          65.9667   93.3740   10.8421 C.3     1  UNL1        0.1321
      8 C          64.7895   91.9297   12.7587 C.ar    1  UNL1        0.1787
      9 N          63.6832   90.9176   12.7956 N.ar    1  UNL1       -0.2192
     10 C          63.1645   87.8791   12.3228 C.3     1  UNL1        0.0941
     11 C          63.4960   81.4569   13.8399 C.3     1  UNL1        0.0896
     12 N          63.4208   82.9148   13.4955 N.3     1  UNL1       -0.2715
     13 C          62.7538   83.5021   12.2870 C.3     1  UNL1        0.0722
     14 C          62.9201   84.9918   12.3437 C.3     1  UNL1        0.0191
     15 C          63.6898   85.3253   13.5872 C.3     1  UNL1        0.0191
     16 C          63.9993   84.0416   14.2991 C.3     1  UNL1        0.0722
     17 C          63.2398   86.4212   12.6672 C.3     1  UNL1        0.0226
     18 C          60.9601   87.4633   11.0124 C.3     1  UNL1        0.1205
     19 C          61.0643   86.7117    9.7184 C.ar    1  UNL1       -0.0000
     20 C          59.9035   86.6887    8.7688 C.ar    1  UNL1       -0.0016
     21 C          60.0077   85.9371    7.4748 C.ar    1  UNL1        0.0134
     22 C          61.2729   85.2086    7.1305 C.ar    1  UNL1        0.0850
     23 CL         61.3772   84.4570    5.8366 Cl      1  UNL1       -0.0799
     24 C          62.4338   85.2316    8.0802 C.ar    1  UNL1        0.1503
     25 F          63.6990   84.5030    7.7359 F       1  UNL1       -0.2033
     26 C          62.3295   85.9831    9.3741 C.ar    1  UNL1        0.0279
@<TRIPOS>BOND
     1    11    12    1
     2    12    13    1
     3    14    13    1
     4    14    15    1
     5    15    16    1
     6    15    17    1
     7    17    10    1
     8    10     1    1
     9     1    18    1
    10    18    19    1
    11    19    20   ar
    12    20    21   ar
    13    21    22   ar
    14    22    23    1
    15    22    24   ar
    16    24    25    1
    17    24    26   ar
    18     1     2   am
    19     2     3    2
    20     2     4    1
    21     4     5   ar
    22     5     6   ar
    23     6     7    1
    24     6     8   ar
    25     8     9   ar
    26    16    12    1
    27    26    19   ar
    28     9     4   ar
    29    17    14    1
@<TRIPOS>MOLECULE
*****
 26 29 0 0 0
SMALL
GASTEIGER

@<TRIPOS>ATOM
      1 N          62.3459   88.7947   11.7785 N.am    1  UNL1       -0.2707
      2 C          62.4155   90.2071   11.2780 C.2     1  UNL1        0.2686
      3 O          61.3292   90.7438   10.3938 O.2     1  UNL1       -0.2682
      4 C          63.5714   91.0826   11.6617 C.ar    1  UNL1        0.1535
      5 C          64.4759   91.8140   10.7146 C.ar    1  UNL1        0.1012
      6 N          65.4892   92.5639   11.5274 N.ar    1  UNL1       -0.3057
      7 C          66.5880   93.4298   10.9859 C.3     1  UNL1        0.1321
      8 C          65.2110   92.2961   12.9768 C.ar    1  UNL1        0.1787
      9 N          64.0257   91.3806   13.0598 N.ar    1  UNL1       -0.2192
     10 C          63.4322   88.2580   12.6627 C.3     1  UNL1        0.0941
     11 C          63.5932   81.8256   14.1645 C.3     1  UNL1        0.0896
     12 N          63.5567   83.2858   13.8236 N.3     1  UNL1       -0.2715
     13 C          64.1626   84.3953   14.6311 C.3     1  UNL1        0.0722
     14 C          63.8882   85.6882   13.9219 C.3     1  UNL1        0.0191
     15 C          63.1126   85.3779   12.6759 C.3     1  UNL1        0.0191
     16 C          62.9077   83.8932   12.6152 C.3     1  UNL1        0.0722
     17 C          63.4688   86.7977   13.0036 C.3     1  UNL1        0.0226
     18 C          61.1900   87.9191   11.3948 C.3     1  UNL1        0.1205
     19 C          61.2283   87.1470   10.1093 C.ar    1  UNL1       -0.0000
     20 C          62.4759   86.4159    9.7104 C.ar    1  UNL1       -0.0016
     21 C          62.5142   85.6438    8.4249 C.ar    1  UNL1        0.0134
     22 C          61.3049   85.6029    7.5383 C.ar    1  UNL1        0.0850
     23 CL         61.3432   84.8308    6.2528 Cl      1  UNL1       -0.0799
     24 C          60.0574   86.3340    7.9372 C.ar    1  UNL1        0.1503
     25 F          58.8481   86.2931    7.0506 F       1  UNL1       -0.2033
     26 C          60.0191   87.1061    9.2227 C.ar    1  UNL1        0.0279
@<TRIPOS>BOND
     1    11    12    1
     2    12    13    1
     3    14    13    1
     4    14    15    1
     5    15    16    1
     6    15    17    1
     7    17    10    1
     8    10     1    1
     9     1    18    1
    10    18    19    1
    11    19    20   ar
    12    20    21   ar
    13    21    22   ar
    14    22    23    1
    15    22    24   ar
    16    24    25    1
    17    24    26   ar
    18     1     2   am
    19     2     3    2
    20     2     4    1
    21     4     5   ar
    22     5     6   ar
    23     6     7    1
    24     6     8   ar
    25     8     9   ar
    26    16    12    1
    27    26    19   ar
    28     9     4   ar
    29    17    14    1
@<TRIPOS>MOLECULE
*****
 26 29 0 0 0
SMALL
GASTEIGER

@<TRIPOS>ATOM
      1 N          61.9700   88.3948   11.4872 N.am    1  UNL1       -0.2707
      2 C          60.8335   89.2083   10.9424 C.2     1  UNL1        0.2686
      3 O          60.2969   90.3678   11.7282 O.2     1  UNL1       -0.2682
      4 C          60.2337   88.8621    9.6118 C.ar    1  UNL1        0.1535
      5 C          60.1205   89.7793    8.4303 C.ar    1  UNL1        0.1012
      6 N          59.4586   89.0221    7.3175 N.ar    1  UNL1       -0.3057
      7 C          59.1472   89.5562    5.9508 C.3     1  UNL1        0.1321
      8 C          59.1628   87.6369    7.8112 C.ar    1  UNL1        0.1787
      9 N          59.6418   87.5381    9.2292 N.ar    1  UNL1       -0.2192
     10 C          62.5067   87.2353   10.7015 C.3     1  UNL1        0.0941
     11 C          63.1033   81.3053   13.5538 C.3     1  UNL1        0.0896
     12 N          62.9679   82.6515   12.9062 N.3     1  UNL1       -0.2715
     13 C          63.0116   82.9296   11.4328 C.3     1  UNL1        0.0722
     14 C          62.8356   84.4060   11.2344 C.3     1  UNL1        0.0191
     15 C          62.6832   85.0404   12.5851 C.3     1  UNL1        0.0191
     16 C          62.7649   83.9560   13.6184 C.3     1  UNL1        0.0722
     17 C          62.6421   85.8891   11.3490 C.3     1  UNL1        0.0226
     18 C          62.5698   88.7410   12.8178 C.3     1  UNL1        0.1205
     19 C          63.5868   89.8390   12.9192 C.ar    1  UNL1       -0.0000
     20 C          64.4704   89.9337   14.1276 C.ar    1  UNL1       -0.0016
     21 C          65.4873   91.0317   14.2290 C.ar    1  UNL1        0.0134
     22 C          65.6206   92.0350   13.1220 C.ar    1  UNL1        0.0850
     23 CL         66.6375   93.1330   13.2233 Cl      1  UNL1       -0.0799
     24 C          64.7370   91.9403   11.9135 C.ar    1  UNL1        0.1503
     25 F          64.8703   92.9437   10.8065 F       1  UNL1       -0.2033
     26 C          63.7201   90.8424   11.8122 C.ar    1  UNL1        0.0279
@<TRIPOS>BOND
     1    11    12    1
     2    12    13    1
     3    14    13    1
     4    14    15    1
     5    15    16    1
     6    15    17    1
     7    17    10    1
     8    10     1    1
     9     1    18    1
    10    18    19    1
    11    19    20   ar
    12    20    21   ar
    13    21    22   ar
    14    22    23    1
    15    22    24   ar
    16    24    25    1
    17    24    26   ar
    18     1     2   am
    19     2     3    2
    20     2     4    1
    21     4     5   ar
    22     5     6   ar
    23     6     7    1
    24     6     8   ar
    25     8     9   ar
    26    16    12    1
    27    26    19   ar
    28     9     4   ar
    29    17    14    1
@<TRIPOS>MOLECULE
*****
 26 29 0 0 0
SMALL
GASTEIGER

@<TRIPOS>ATOM
      1 N          63.6815   83.9903   13.3292 N.am    1  UNL1       -0.2707
      2 C          63.5838   82.9463   14.4019 C.2     1  UNL1        0.2686
      3 O          64.4186   83.0652   15.6424 O.2     1  UNL1       -0.2682
      4 C          62.6512   81.7835   14.2340 C.ar    1  UNL1        0.1535
      5 C          61.1655   81.8080   14.4394 C.ar    1  UNL1        0.1012
      6 N          60.6368   80.4317   14.1636 N.ar    1  UNL1       -0.3057
      7 C          59.2011   80.0053   14.2487 C.3     1  UNL1        0.1321
      8 C          61.7956   79.5566   13.7876 C.ar    1  UNL1        0.1787
      9 N          63.0405   80.3921   13.8311 N.ar    1  UNL1       -0.2192
     10 C          62.8467   83.8715   12.0887 C.3     1  UNL1        0.0941
     11 C          60.5305   89.3075    9.1321 C.3     1  UNL1        0.0896
     12 N          61.0563   88.0735    9.8033 N.3     1  UNL1       -0.2715
     13 C          60.6645   87.5740   11.1625 C.3     1  UNL1        0.0722
     14 C          61.4323   86.3140   11.4324 C.3     1  UNL1        0.0191
     15 C          62.2987   86.0346   10.2401 C.3     1  UNL1        0.0191
     16 C          62.0662   87.1221    9.2333 C.3     1  UNL1        0.0722
     17 C          62.3209   85.1056   11.4175 C.3     1  UNL1        0.0226
     18 C          64.6141   85.1531   13.4971 C.3     1  UNL1        0.1205
     19 C          64.2161   86.3155   14.3577 C.ar    1  UNL1       -0.0000
     20 C          64.2552   87.7082   13.8020 C.ar    1  UNL1       -0.0016
     21 C          63.8572   88.8706   14.6626 C.ar    1  UNL1        0.0134
     22 C          63.4202   88.6402   16.0789 C.ar    1  UNL1        0.0850
     23 CL         63.0222   89.8025   16.9395 Cl      1  UNL1       -0.0799
     24 C          63.3812   87.2474   16.6346 C.ar    1  UNL1        0.1503
     25 F          62.9442   87.0170   18.0510 F       1  UNL1       -0.2033
     26 C          63.7791   86.0851   15.7740 C.ar    1  UNL1        0.0279
@<TRIPOS>BOND
     1    11    12    1
     2    12    13    1
     3    14    13    1
     4    14    15    1
     5    15    16    1
     6    15    17    1
     7    17    10    1
     8    10     1    1
     9     1    18    1
    10    18    19    1
    11    19    20   ar
    12    20    21   ar
    13    21    22   ar
    14    22    23    1
    15    22    24   ar
    16    24    25    1
    17    24    26   ar
    18     1     2   am
    19     2     3    2
    20     2     4    1
    21     4     5   ar
    22     5     6   ar
    23     6     7    1
    24     6     8   ar
    25     8     9   ar
    26    16    12    1
    27    26    19   ar
    28     9     4   ar
    29    17    14    1
