@<TRIPOS>MOLECULE
*****
 24 25 0 0 0
SMALL
GASTEIGER

@<TRIPOS>ATOM
      1 C          66.3797   92.9073   11.4624 C.ar    1  UNL1        0.1753
      2 C          65.2660   92.3789   10.6077 C.ar    1  UNL1        0.0403
      3 C          64.1188   91.6470   11.2386 C.ar    1  UNL1        0.0063
      4 C          64.0853   91.4433   12.7243 C.ar    1  UNL1        0.0403
      5 C          65.1989   91.9717   13.5791 C.ar    1  UNL1        0.1754
      6 C          66.3461   92.7036   12.9481 C.ar    1  UNL1        0.2059
      7 C          63.0051   91.1186   10.3838 C.2     1  UNL1        0.0035
      8 C          61.9256   90.2756   10.9953 C.2     1  UNL1        0.0420
      9 C          60.8119   89.7472   10.1406 C.2     1  UNL1        0.1957
     10 O          59.5505   90.5422    9.9765 O.2     1  UNL1       -0.2866
     11 C          60.9597   88.4239    9.4499 C.ar    1  UNL1        0.0420
     12 C          59.8908   87.9430    8.5138 C.ar    1  UNL1        0.0239
     13 C          60.0385   86.6197    7.8231 C.ar    1  UNL1        0.0990
     14 N          61.2551   85.7773    8.0685 N.ar    1  UNL1       -0.2423
     15 C          62.3241   86.2582    9.0045 C.ar    1  UNL1        0.0990
     16 C          62.1763   87.5815    9.6952 C.ar    1  UNL1        0.0239
     17 O          65.1654   91.7680   15.0648 O.3     1  UNL1       -0.4683
     18 C          64.0626   90.9638   15.6869 C.3     1  UNL1        0.2526
     19 O          67.5269   93.6393   10.8314 O.3     1  UNL1       -0.4723
     20 C          68.7199   92.3613    8.9096 C.3     1  UNL1        0.0512
     21 C          67.8145   93.4653    9.3696 C.3     1  UNL1        0.2057
     22 O          67.4598   93.2320   13.8029 O.3     1  UNL1       -0.4695
     23 C          68.3701   92.2804   14.5212 C.3     1  UNL1        0.2058
     24 C          68.5193   92.3658   16.0113 C.3     1  UNL1        0.0512
@<TRIPOS>BOND
     1    20    21    1
     2    21    19    1
     3    19     1    1
     4     1     2   ar
     5     2     3   ar
     6     3     7    1
     7     7     8    2
     8     8     9    1
     9     9    10    2
    10     9    11    1
    11    11    12   ar
    12    12    13   ar
    13    13    14   ar
    14    14    15   ar
    15    15    16   ar
    16     3     4   ar
    17     4     5   ar
    18     5    17    1
    19    17    18    1
    20     5     6   ar
    21     6    22    1
    22    22    23    1
    23    23    24    1
    24     6     1   ar
    25    16    11   ar
@<TRIPOS>MOLECULE
*****
 24 25 0 0 0
SMALL
GASTEIGER

@<TRIPOS>ATOM
      1 C          65.2616   91.7841   13.6217 C.ar    1  UNL1        0.1753
      2 C          64.1646   91.2542   12.7467 C.ar    1  UNL1        0.0403
      3 C          64.1174   91.6269   11.2945 C.ar    1  UNL1        0.0063
      4 C          65.1672   92.5296   10.7174 C.ar    1  UNL1        0.0403
      5 C          66.2642   93.0595   11.5924 C.ar    1  UNL1        0.1754
      6 C          66.3114   92.6868   13.0446 C.ar    1  UNL1        0.2059
      7 C          63.0204   91.0969   10.4194 C.2     1  UNL1        0.0035
      8 C          61.9039   90.2947   11.0193 C.2     1  UNL1        0.0420
      9 C          60.8069   89.7647   10.1444 C.2     1  UNL1        0.1957
     10 O          59.5468   90.5570    9.9585 O.2     1  UNL1       -0.2866
     11 C          60.9699   88.4424    9.4552 C.ar    1  UNL1        0.0420
     12 C          59.9191   87.9601    8.4996 C.ar    1  UNL1        0.0239
     13 C          60.0821   86.6379    7.8104 C.ar    1  UNL1        0.0990
     14 N          61.2959   85.7978    8.0768 N.ar    1  UNL1       -0.2423
     15 C          62.3468   86.2801    9.0324 C.ar    1  UNL1        0.0990
     16 C          62.1838   87.6024    9.7216 C.ar    1  UNL1        0.0239
     17 O          67.3140   93.9622   11.0153 O.3     1  UNL1       -0.4683
     18 C          67.3626   94.2063    9.5361 C.3     1  UNL1        0.2526
     19 O          65.3088   91.4114   15.0739 O.3     1  UNL1       -0.4723
     20 C          63.5344   89.7361   15.9654 C.3     1  UNL1        0.0512
     21 C          64.0362   91.1423   15.8209 C.3     1  UNL1        0.2057
     22 O          67.4084   93.2168   13.9197 O.3     1  UNL1       -0.4695
     23 C          68.3773   92.2701   14.5640 C.3     1  UNL1        0.2058
     24 C          68.5934   92.3128   16.0477 C.3     1  UNL1        0.0512
@<TRIPOS>BOND
     1    20    21    1
     2    21    19    1
     3    19     1    1
     4     1     2   ar
     5     2     3   ar
     6     3     7    1
     7     7     8    2
     8     8     9    1
     9     9    10    2
    10     9    11    1
    11    11    12   ar
    12    12    13   ar
    13    13    14   ar
    14    14    15   ar
    15    15    16   ar
    16     3     4   ar
    17     4     5   ar
    18     5    17    1
    19    17    18    1
    20     5     6   ar
    21     6    22    1
    22    22    23    1
    23    23    24    1
    24     6     1   ar
    25    16    11   ar
@<TRIPOS>MOLECULE
*****
 24 25 0 0 0
SMALL
GASTEIGER

@<TRIPOS>ATOM
      1 C          62.3019   85.8522   11.4230 C.ar    1  UNL1        0.1753
      2 C          62.6746   87.2600   11.7819 C.ar    1  UNL1        0.0403
      3 C          63.4964   87.5291   13.0076 C.ar    1  UNL1        0.0063
      4 C          63.9454   86.3902   13.8743 C.ar    1  UNL1        0.0403
      5 C          63.5728   84.9824   13.5154 C.ar    1  UNL1        0.1754
      6 C          62.7510   84.7133   12.2897 C.ar    1  UNL1        0.2059
      7 C          63.8690   88.9371   13.3665 C.2     1  UNL1        0.0035
      8 C          63.8803   89.3668   14.8036 C.2     1  UNL1        0.0420
      9 C          64.2530   90.7747   15.1626 C.2     1  UNL1        0.1957
     10 O          63.5492   91.4730   16.2883 O.2     1  UNL1       -0.2866
     11 C          65.3294   91.4843   14.3959 C.ar    1  UNL1        0.0420
     12 C          65.0072   92.1466   13.0892 C.ar    1  UNL1        0.0239
     13 C          66.0836   92.8562   12.3225 C.ar    1  UNL1        0.0990
     14 N          67.4822   92.9035   12.8626 N.ar    1  UNL1       -0.2423
     15 C          67.8044   92.2412   14.1693 C.ar    1  UNL1        0.0990
     16 C          66.7280   91.5316   14.9360 C.ar    1  UNL1        0.0239
     17 O          64.0219   83.8434   14.3822 O.3     1  UNL1       -0.4683
     18 C          63.0308   83.1239   15.2482 C.3     1  UNL1        0.2526
     19 O          61.4801   85.5831   10.1973 O.3     1  UNL1       -0.4723
     20 C          62.8396   85.2527    8.0081 C.3     1  UNL1        0.0512
     21 C          61.9361   86.0921    8.8620 C.3     1  UNL1        0.2057
     22 O          62.3783   83.3053   11.9308 O.3     1  UNL1       -0.4695
     23 C          63.3946   82.3969   11.3047 C.3     1  UNL1        0.2058
     24 C          64.4684   82.9658   10.4254 C.3     1  UNL1        0.0512
@<TRIPOS>BOND
     1    20    21    1
     2    21    19    1
     3    19     1    1
     4     1     2   ar
     5     2     3   ar
     6     3     7    1
     7     7     8    2
     8     8     9    1
     9     9    10    2
    10     9    11    1
    11    11    12   ar
    12    12    13   ar
    13    13    14   ar
    14    14    15   ar
    15    15    16   ar
    16     3     4   ar
    17     4     5   ar
    18     5    17    1
    19    17    18    1
    20     5     6   ar
    21     6    22    1
    22    22    23    1
    23    23    24    1
    24     6     1   ar
    25    16    11   ar
@<TRIPOS>MOLECULE
*****
 24 25 0 0 0
SMALL
GASTEIGER

@<TRIPOS>ATOM
      1 C          65.9328   92.1736   13.7260 C.ar    1  UNL1        0.1753
      2 C          65.5361   91.0152   14.5924 C.ar    1  UNL1        0.0403
      3 C          64.4853   90.0530   14.1233 C.ar    1  UNL1        0.0063
      4 C          63.8312   90.2492   12.7878 C.ar    1  UNL1        0.0403
      5 C          64.2279   91.4076   11.9214 C.ar    1  UNL1        0.1754
      6 C          65.2787   92.3698   12.3905 C.ar    1  UNL1        0.2059
      7 C          64.0886   88.8945   14.9898 C.2     1  UNL1        0.0035
      8 C          64.2482   87.4911   14.4848 C.2     1  UNL1        0.0420
      9 C          63.8516   86.3327   15.3512 C.2     1  UNL1        0.1957
     10 O          63.6570   86.5307   16.8254 O.2     1  UNL1       -0.2866
     11 C          63.6495   84.9762   14.7436 C.ar    1  UNL1        0.0420
     12 C          62.5181   84.1076   15.2074 C.ar    1  UNL1        0.0239
     13 C          62.3160   82.7512   14.5998 C.ar    1  UNL1        0.0990
     14 N          63.2454   82.2634   13.5283 N.ar    1  UNL1       -0.2423
     15 C          64.3769   83.1320   13.0643 C.ar    1  UNL1        0.0990
     16 C          64.5790   84.4885   13.6720 C.ar    1  UNL1        0.0239
     17 O          63.5737   91.6039   10.5858 O.3     1  UNL1       -0.4683
     18 C          62.5338   90.6332   10.1102 C.3     1  UNL1        0.2526
     19 O          66.9836   93.1357   14.1951 O.3     1  UNL1       -0.4723
     20 C          68.6311   92.4436   16.0810 C.3     1  UNL1        0.0512
     21 C          67.3886   93.1586   15.6391 C.3     1  UNL1        0.2057
     22 O          65.6753   93.5283   11.5240 O.3     1  UNL1       -0.4695
     23 C          66.6496   93.3262   10.4016 C.3     1  UNL1        0.2058
     24 C          67.6277   92.1901   10.4528 C.3     1  UNL1        0.0512
@<TRIPOS>BOND
     1    20    21    1
     2    21    19    1
     3    19     1    1
     4     1     2   ar
     5     2     3   ar
     6     3     7    1
     7     7     8    2
     8     8     9    1
     9     9    10    2
    10     9    11    1
    11    11    12   ar
    12    12    13   ar
    13    13    14   ar
    14    14    15   ar
    15    15    16   ar
    16     3     4   ar
    17     4     5   ar
    18     5    17    1
    19    17    18    1
    20     5     6   ar
    21     6    22    1
    22    22    23    1
    23    23    24    1
    24     6     1   ar
    25    16    11   ar
@<TRIPOS>MOLECULE
*****
 24 25 0 0 0
SMALL
GASTEIGER

@<TRIPOS>ATOM
      1 C          63.9157   91.0449   12.1343 C.ar    1  UNL1        0.1753
      2 C          63.5980   89.8299   12.9545 C.ar    1  UNL1        0.0403
      3 C          64.3713   89.5484   14.2086 C.ar    1  UNL1        0.0063
      4 C          65.4623   90.4818   14.6425 C.ar    1  UNL1        0.0403
      5 C          65.7800   91.6969   13.8223 C.ar    1  UNL1        0.1754
      6 C          65.0067   91.9784   12.5682 C.ar    1  UNL1        0.2059
      7 C          64.0536   88.3333   15.0288 C.2     1  UNL1        0.0035
      8 C          64.2364   86.9644   14.4433 C.2     1  UNL1        0.0420
      9 C          63.9187   85.7494   15.2635 C.2     1  UNL1        0.1957
     10 O          63.8523   85.8500   16.7587 O.2     1  UNL1       -0.2866
     11 C          63.6674   84.4336   14.5885 C.ar    1  UNL1        0.0420
     12 C          62.5352   83.5613   15.0437 C.ar    1  UNL1        0.0239
     13 C          62.2839   82.2455   14.3687 C.ar    1  UNL1        0.0990
     14 N          63.1648   81.8021   13.2385 N.ar    1  UNL1       -0.2423
     15 C          64.2970   82.6744   12.7832 C.ar    1  UNL1        0.0990
     16 C          64.5483   83.9902   13.4582 C.ar    1  UNL1        0.0239
     17 O          66.8711   92.6304   14.2562 O.3     1  UNL1       -0.4683
     18 C          67.0396   92.9633   15.7090 C.3     1  UNL1        0.2526
     19 O          63.1424   91.3265   10.8802 O.3     1  UNL1       -0.4723
     20 C          62.0382   89.1944    9.8879 C.3     1  UNL1        0.0512
     21 C          61.9129   90.5284   10.5622 C.3     1  UNL1        0.2057
     22 O          65.3245   93.1935   11.7480 O.3     1  UNL1       -0.4695
     23 C          66.1136   93.0569   10.4797 C.3     1  UNL1        0.2058
     24 C          67.4359   92.3488   10.4917 C.3     1  UNL1        0.0512
@<TRIPOS>BOND
     1    20    21    1
     2    21    19    1
     3    19     1    1
     4     1     2   ar
     5     2     3   ar
     6     3     7    1
     7     7     8    2
     8     8     9    1
     9     9    10    2
    10     9    11    1
    11    11    12   ar
    12    12    13   ar
    13    13    14   ar
    14    14    15   ar
    15    15    16   ar
    16     3     4   ar
    17     4     5   ar
    18     5    17    1
    19    17    18    1
    20     5     6   ar
    21     6    22    1
    22    22    23    1
    23    23    24    1
    24     6     1   ar
    25    16    11   ar
@<TRIPOS>MOLECULE
*****
 24 25 0 0 0
SMALL
GASTEIGER

@<TRIPOS>ATOM
      1 C          61.2933   89.3178   10.6065 C.ar    1  UNL1        0.1753
      2 C          62.0794   90.5952   10.6204 C.ar    1  UNL1        0.0403
      3 C          63.3114   90.7084   11.4685 C.ar    1  UNL1        0.0063
      4 C          63.7573   89.5443   12.3028 C.ar    1  UNL1        0.0403
      5 C          62.9711   88.2670   12.2889 C.ar    1  UNL1        0.1754
      6 C          61.7391   88.1537   11.4408 C.ar    1  UNL1        0.2059
      7 C          64.0976   91.9859   11.4824 C.2     1  UNL1        0.0035
      8 C          65.1811   92.1887   12.4997 C.2     1  UNL1        0.0420
      9 C          65.9672   93.4661   12.5136 C.2     1  UNL1        0.1957
     10 O          66.1901   94.1957   13.8052 O.2     1  UNL1       -0.2866
     11 C          66.5306   94.0140   11.2359 C.ar    1  UNL1        0.0420
     12 C          67.2878   93.1152   10.3039 C.ar    1  UNL1        0.0239
     13 C          67.8512   93.6631    9.0262 C.ar    1  UNL1        0.0990
     14 N          67.6574   95.1097    8.6806 N.ar    1  UNL1       -0.2423
     15 C          66.9002   96.0086    9.6127 C.ar    1  UNL1        0.0990
     16 C          66.3368   95.4607   10.8904 C.ar    1  UNL1        0.0239
     17 O          63.4170   87.1027   13.1231 O.3     1  UNL1       -0.4683
     18 C          64.2035   87.3373   14.3787 C.3     1  UNL1        0.2526
     19 O          60.0613   89.2046    9.7584 O.3     1  UNL1       -0.4723
     20 C          59.2332   87.4411    8.0396 C.3     1  UNL1        0.0512
     21 C          60.1425   88.5791    8.3975 C.3     1  UNL1        0.2057
     22 O          60.9530   86.8762   11.4269 O.3     1  UNL1       -0.4695
     23 C          61.4891   85.6734   10.7088 C.3     1  UNL1        0.2058
     24 C          62.3573   85.8479    9.4981 C.3     1  UNL1        0.0512
@<TRIPOS>BOND
     1    20    21    1
     2    21    19    1
     3    19     1    1
     4     1     2   ar
     5     2     3   ar
     6     3     7    1
     7     7     8    2
     8     8     9    1
     9     9    10    2
    10     9    11    1
    11    11    12   ar
    12    12    13   ar
    13    13    14   ar
    14    14    15   ar
    15    15    16   ar
    16     3     4   ar
    17     4     5   ar
    18     5    17    1
    19    17    18    1
    20     5     6   ar
    21     6    22    1
    22    22    23    1
    23    23    24    1
    24     6     1   ar
    25    16    11   ar
@<TRIPOS>MOLECULE
*****
 24 25 0 0 0
SMALL
GASTEIGER

@<TRIPOS>ATOM
      1 C          60.4341   86.3987    8.0934 C.ar    1  UNL1        0.1753
      2 C          61.2201   85.7468    9.1920 C.ar    1  UNL1        0.0403
      3 C          61.4923   86.4933   10.4643 C.ar    1  UNL1        0.0063
      4 C          60.9784   87.8918   10.6379 C.ar    1  UNL1        0.0403
      5 C          60.1923   88.5437    9.5393 C.ar    1  UNL1        0.1754
      6 C          59.9201   87.7972    8.2670 C.ar    1  UNL1        0.2059
      7 C          62.2784   85.8413   11.5629 C.2     1  UNL1        0.0035
      8 C          62.8088   84.4500   11.3817 C.2     1  UNL1        0.0420
      9 C          63.5949   83.7980   12.4803 C.2     1  UNL1        0.1957
     10 O          64.3955   82.5613   12.1975 O.2     1  UNL1       -0.2866
     11 C          63.5805   84.3825   13.8616 C.ar    1  UNL1        0.0420
     12 C          64.6878   85.2933   14.3022 C.ar    1  UNL1        0.0239
     13 C          64.6734   85.8779   15.6835 C.ar    1  UNL1        0.0990
     14 N          63.5516   85.5517   16.6243 N.ar    1  UNL1       -0.2423
     15 C          62.4441   84.6408   16.1837 C.ar    1  UNL1        0.0990
     16 C          62.4586   84.0563   14.8024 C.ar    1  UNL1        0.0239
     17 O          59.6783   89.9422    9.7129 O.3     1  UNL1       -0.4683
     18 C          59.6968   90.5853   11.0679 C.3     1  UNL1        0.2526
     19 O          60.1619   85.6522    6.8211 O.3     1  UNL1       -0.4723
     20 C          62.2692   84.5105    5.8182 C.3     1  UNL1        0.0512
     21 C          60.9372   84.4088    6.5006 C.3     1  UNL1        0.2057
     22 O          59.1340   88.4492    7.1684 O.3     1  UNL1       -0.4695
     23 C          59.6772   89.6644    6.4769 C.3     1  UNL1        0.2058
     24 C          58.7700   90.5233    5.6468 C.3     1  UNL1        0.0512
@<TRIPOS>BOND
     1    20    21    1
     2    21    19    1
     3    19     1    1
     4     1     2   ar
     5     2     3   ar
     6     3     7    1
     7     7     8    2
     8     8     9    1
     9     9    10    2
    10     9    11    1
    11    11    12   ar
    12    12    13   ar
    13    13    14   ar
    14    14    15   ar
    15    15    16   ar
    16     3     4   ar
    17     4     5   ar
    18     5    17    1
    19    17    18    1
    20     5     6   ar
    21     6    22    1
    22    22    23    1
    23    23    24    1
    24     6     1   ar
    25    16    11   ar
@<TRIPOS>MOLECULE
*****
 24 25 0 0 0
SMALL
GASTEIGER

@<TRIPOS>ATOM
      1 C          62.6944   87.3809   11.9887 C.ar    1  UNL1        0.1753
      2 C          63.0433   88.8395   11.9637 C.ar    1  UNL1        0.0403
      3 C          63.8635   89.4336   13.0702 C.ar    1  UNL1        0.0063
      4 C          64.3348   88.5690   14.2017 C.ar    1  UNL1        0.0403
      5 C          63.9859   87.1104   14.2267 C.ar    1  UNL1        0.1754
      6 C          63.1657   86.5164   13.1202 C.ar    1  UNL1        0.2059
      7 C          64.2124   90.8923   13.0452 C.2     1  UNL1        0.0035
      8 C          65.6180   91.3322   13.3292 C.2     1  UNL1        0.0420
      9 C          65.9669   92.7908   13.3042 C.2     1  UNL1        0.1957
     10 O          65.8865   93.6030   14.5628 O.2     1  UNL1       -0.2866
     11 C          66.3962   93.4374   12.0206 C.ar    1  UNL1        0.0420
     12 C          67.0018   92.6067   10.9283 C.ar    1  UNL1        0.0239
     13 C          67.4312   93.2532    9.6447 C.ar    1  UNL1        0.0990
     14 N          67.2549   94.7305    9.4534 N.ar    1  UNL1       -0.2423
     15 C          66.6493   95.5613   10.5457 C.ar    1  UNL1        0.0990
     16 C          66.2200   94.9147   11.8293 C.ar    1  UNL1        0.0239
     17 O          64.4572   86.2458   15.3583 O.3     1  UNL1       -0.4683
     18 C          63.5200   85.8968   16.4762 C.3     1  UNL1        0.2526
     19 O          61.8742   86.7869   10.8822 O.3     1  UNL1       -0.4723
     20 C          60.3525   87.9118    9.1021 C.3     1  UNL1        0.0512
     21 C          60.5652   87.4119   10.5002 C.3     1  UNL1        0.2057
     22 O          62.8168   85.0577   13.1453 O.3     1  UNL1       -0.4695
     23 C          63.7644   84.0498   12.5654 C.3     1  UNL1        0.2058
     24 C          63.6533   83.6600   11.1212 C.3     1  UNL1        0.0512
@<TRIPOS>BOND
     1    20    21    1
     2    21    19    1
     3    19     1    1
     4     1     2   ar
     5     2     3   ar
     6     3     7    1
     7     7     8    2
     8     8     9    1
     9     9    10    2
    10     9    11    1
    11    11    12   ar
    12    12    13   ar
    13    13    14   ar
    14    14    15   ar
    15    15    16   ar
    16     3     4   ar
    17     4     5   ar
    18     5    17    1
    19    17    18    1
    20     5     6   ar
    21     6    22    1
    22    22    23    1
    23    23    24    1
    24     6     1   ar
    25    16    11   ar
@<TRIPOS>MOLECULE
*****
 24 25 0 0 0
SMALL
GASTEIGER

@<TRIPOS>ATOM
      1 C          61.9666   85.9943   10.6396 C.ar    1  UNL1        0.1753
      2 C          62.8280   86.7411   11.6144 C.ar    1  UNL1        0.0403
      3 C          62.6568   88.2214   11.7856 C.ar    1  UNL1        0.0063
      4 C          61.6243   88.9549   10.9819 C.ar    1  UNL1        0.0403
      5 C          60.7629   88.2081   10.0071 C.ar    1  UNL1        0.1754
      6 C          60.9341   86.7278    9.8359 C.ar    1  UNL1        0.2059
      7 C          63.5182   88.9683   12.7604 C.2     1  UNL1        0.0035
      8 C          62.9922   90.2002   13.4354 C.2     1  UNL1        0.0420
      9 C          63.8535   90.9470   14.4103 C.2     1  UNL1        0.1957
     10 O          63.3778   91.1675   15.8157 O.2     1  UNL1       -0.2866
     11 C          65.1905   91.4734   13.9797 C.ar    1  UNL1        0.0420
     12 C          65.3353   92.1574   12.6526 C.ar    1  UNL1        0.0239
     13 C          66.6723   92.6838   12.2221 C.ar    1  UNL1        0.0990
     14 N          67.8645   92.5262   13.1187 N.ar    1  UNL1       -0.2423
     15 C          67.7197   91.8422   14.4458 C.ar    1  UNL1        0.0990
     16 C          66.3827   91.3158   14.8764 C.ar    1  UNL1        0.0239
     17 O          59.7304   88.9416    9.2034 O.3     1  UNL1       -0.4683
     18 C          59.9663   89.2117    7.7470 C.3     1  UNL1        0.2526
     19 O          62.1378   84.5139   10.4684 O.3     1  UNL1       -0.4723
     20 C          62.7441   82.7891   12.3142 C.3     1  UNL1        0.0512
     21 C          63.1701   83.7804   11.2722 C.3     1  UNL1        0.2057
     22 O          60.0727   85.9809    8.8611 O.3     1  UNL1       -0.4695
     23 C          60.4957   85.8584    7.4272 C.3     1  UNL1        0.2058
     24 C          61.7050   85.0465    7.0687 C.3     1  UNL1        0.0512
@<TRIPOS>BOND
     1    20    21    1
     2    21    19    1
     3    19     1    1
     4     1     2   ar
     5     2     3   ar
     6     3     7    1
     7     7     8    2
     8     8     9    1
     9     9    10    2
    10     9    11    1
    11    11    12   ar
    12    12    13   ar
    13    13    14   ar
    14    14    15   ar
    15    15    16   ar
    16     3     4   ar
    17     4     5   ar
    18     5    17    1
    19    17    18    1
    20     5     6   ar
    21     6    22    1
    22    22    23    1
    23    23    24    1
    24     6     1   ar
    25    16    11   ar
