@<TRIPOS>MOLECULE
*****
 41 46 0 0 0
SMALL
GASTEIGER

@<TRIPOS>ATOM
      1 C          63.1807   85.7645   12.1679 C.2     1  UNL1        0.2301
      2 O          63.5472   86.4193   13.4667 O.2     1  UNL1       -0.2745
      3 N          62.4320   86.5379   11.1231 N.am    1  UNL1       -0.2793
      4 C          62.0500   87.9659   11.3771 C.3     1  UNL1        0.0935
      5 C          61.3014   88.7392   10.3323 C.3     1  UNL1        0.0242
      6 C          60.9348   88.0844    9.0336 C.3     1  UNL1        0.0328
      7 C          61.3169   86.6563    8.7795 C.3     1  UNL1        0.0242
      8 C          62.0655   85.8830    9.8243 C.3     1  UNL1        0.0935
      9 C          60.3991   89.4815    8.9287 C.3     1  UNL1        0.0737
     10 N          59.8761   89.1780    7.5559 N.3     1  UNL1       -0.2702
     11 C          60.4118   87.7809    7.6608 C.3     1  UNL1        0.0737
     12 C          59.1275   89.9513    6.5112 C.3     1  UNL1        0.0801
     13 C          57.6359   90.0431    6.3821 C.3     1  UNL1        0.0251
     14 C          57.3256   90.9171    5.2032 C.3     1  UNL1        0.0278
     15 C          58.6254   91.3654    4.6036 C.ar    1  UNL1       -0.0248
     16 C          58.9388   92.2401    3.4260 C.ar    1  UNL1       -0.0030
     17 C          60.3659   92.5178    3.0569 C.ar    1  UNL1        0.0174
     18 C          61.4795   91.9209    3.8653 C.ar    1  UNL1        0.0012
     19 C          61.1661   91.0463    5.0428 C.ar    1  UNL1       -0.0032
     20 C          59.7390   90.7685    5.4121 C.ar    1  UNL1       -0.0117
     21 C          60.6792   93.3925    1.8792 C.ar    1  UNL1        0.0842
     22 C          61.9309   93.1618    1.0855 C.ar    1  UNL1        0.0339
     23 C          62.2442   94.0365   -0.0920 C.ar    1  UNL1        0.0626
     24 C          63.4959   93.8058   -0.8857 C.3     1  UNL1        0.0522
     25 N          61.3058   95.1420   -0.4760 N.ar    1  UNL1       -0.2283
     26 C          60.0541   95.3726    0.3177 C.ar    1  UNL1        0.1985
     27 N          59.7408   94.4979    1.4953 N.ar    1  UNL1       -0.2240
     28 C          63.5627   84.3364   11.9139 C.3     1  UNL1        0.1117
     29 C          61.3032   81.0096   13.9330 C.ar    1  UNL1        0.1389
     30 C          61.3315   82.3777   14.5474 C.ar    1  UNL1        0.0366
     31 C          62.0847   83.4866   13.8744 C.ar    1  UNL1       -0.0005
     32 C          62.8095   83.2274   12.5870 C.ar    1  UNL1       -0.0085
     33 C          62.7812   81.8593   11.9726 C.ar    1  UNL1        0.0527
     34 C          62.0281   80.7504   12.6456 C.ar    1  UNL1        0.0411
     35 C          63.5061   81.6002   10.6852 C.2     1  UNL1        0.2426
     36 N          63.0912   80.4563    9.8080 N.am    1  UNL1       -0.3253
     37 O          64.6459   82.4848   10.2750 O.2     1  UNL1       -0.2704
     38 H          62.3432   79.8757   10.0772 H       1  UNL1        0.1453
     39 H          63.5670   80.2862    8.9631 H       1  UNL1        0.1453
     40 C          59.0579   79.8204   14.4756 C.3     1  UNL1        0.2525
     41 O          60.5501   79.9006   14.6061 O.3     1  UNL1       -0.4714
@<TRIPOS>BOND
     1    40    41    1
     2    41    29    1
     3    29    30   ar
     4    30    31   ar
     5    31    32   ar
     6    32    28    1
     7    28     1    1
     8     1     2    2
     9     1     3   am
    10     3     4    1
    11     4     5    1
    12     5     6    1
    13     6     7    1
    14     7     8    1
    15     6     9    1
    16     9    10    1
    17    12    10    1
    18    12    13    1
    19    13    14    1
    20    14    15    1
    21    15    16   ar
    22    16    17   ar
    23    17    21    1
    24    21    22   ar
    25    22    23   ar
    26    23    24    1
    27    23    25   ar
    28    25    26   ar
    29    26    27   ar
    30    17    18   ar
    31    18    19   ar
    32    19    20   ar
    33    10    11    1
    34    32    33   ar
    35    33    35    1
    36    35    36   am
    37    35    37    2
    38    33    34   ar
    39    34    29   ar
    40     8     3    1
    41    20    12    1
    42    11     6    1
    43    20    15   ar
    44    27    21   ar
    45    36    38    1
    46    36    39    1
@<TRIPOS>MOLECULE
*****
 41 46 0 0 0
SMALL
GASTEIGER

@<TRIPOS>ATOM
      1 C          62.7726   86.2371   12.6429 C.2     1  UNL1        0.2301
      2 O          63.9075   86.8868   13.3778 O.2     1  UNL1       -0.2745
      3 N          62.1023   86.9573   11.5106 N.am    1  UNL1       -0.2793
      4 C          62.5667   88.3270   11.1132 C.3     1  UNL1        0.0935
      5 C          61.8964   89.0471    9.9810 C.3     1  UNL1        0.0242
      6 C          60.7615   88.3974    9.2461 C.3     1  UNL1        0.0328
      7 C          60.2971   87.0276    9.6435 C.3     1  UNL1        0.0242
      8 C          60.9674   86.3076   10.7757 C.3     1  UNL1        0.0935
      9 C          60.9404   89.7310    8.5832 C.3     1  UNL1        0.0737
     10 N          59.8135   89.4158    7.6447 N.3     1  UNL1       -0.2702
     11 C          59.6346   88.0822    8.3076 C.3     1  UNL1        0.0737
     12 C          59.1431   90.1359    6.5125 C.3     1  UNL1        0.0801
     13 C          57.6635   90.2677    6.3043 C.3     1  UNL1        0.0251
     14 C          57.4405   91.0638    5.0528 C.3     1  UNL1        0.0278
     15 C          58.7824   91.4240    4.4874 C.ar    1  UNL1       -0.0248
     16 C          59.1821   92.2002    3.2676 C.ar    1  UNL1       -0.0030
     17 C          60.6340   92.4028    2.9500 C.ar    1  UNL1        0.0174
     18 C          61.6862   91.8293    3.8522 C.ar    1  UNL1        0.0012
     19 C          61.2865   91.0532    5.0719 C.ar    1  UNL1       -0.0032
     20 C          59.8346   90.8505    5.3896 C.ar    1  UNL1       -0.0117
     21 C          61.0336   93.1790    1.7302 C.ar    1  UNL1        0.0842
     22 C          62.4622   93.1744    1.2729 C.ar    1  UNL1        0.0339
     23 C          62.8617   93.9505    0.0532 C.ar    1  UNL1        0.0626
     24 C          64.2902   93.9459   -0.4042 C.3     1  UNL1        0.0522
     25 N          61.8326   94.7314   -0.7094 N.ar    1  UNL1       -0.2283
     26 C          60.4041   94.7360   -0.2521 C.ar    1  UNL1        0.1985
     27 N          60.0046   93.9598    0.9677 N.ar    1  UNL1       -0.2240
     28 C          62.3082   84.8674   13.0403 C.3     1  UNL1        0.1117
     29 C          63.4035   81.3019   10.5229 C.ar    1  UNL1        0.1389
     30 C          63.5867   82.6880    9.9799 C.ar    1  UNL1        0.0366
     31 C          63.2216   83.8765   10.8191 C.ar    1  UNL1       -0.0005
     32 C          62.6733   83.6788   12.2012 C.ar    1  UNL1       -0.0085
     33 C          62.4900   82.2926   12.7441 C.ar    1  UNL1        0.0527
     34 C          62.8551   81.1041   11.9050 C.ar    1  UNL1        0.0411
     35 C          61.9417   82.0949   14.1263 C.2     1  UNL1        0.2426
     36 N          62.6287   82.7228   15.3026 N.am    1  UNL1       -0.3253
     37 O          60.7064   81.2693   14.3320 O.2     1  UNL1       -0.2704
     38 H          63.4394   83.2647   15.1675 H       1  UNL1        0.1453
     39 H          62.2688   82.5930   16.2097 H       1  UNL1        0.1453
     40 C          62.8586   78.9218    9.6348 C.3     1  UNL1        0.2525
     41 O          63.7686   80.1133    9.6837 O.3     1  UNL1       -0.4714
@<TRIPOS>BOND
     1    40    41    1
     2    41    29    1
     3    29    30   ar
     4    30    31   ar
     5    31    32   ar
     6    32    28    1
     7    28     1    1
     8     1     2    2
     9     1     3   am
    10     3     4    1
    11     4     5    1
    12     5     6    1
    13     6     7    1
    14     7     8    1
    15     6     9    1
    16     9    10    1
    17    12    10    1
    18    12    13    1
    19    13    14    1
    20    14    15    1
    21    15    16   ar
    22    16    17   ar
    23    17    21    1
    24    21    22   ar
    25    22    23   ar
    26    23    24    1
    27    23    25   ar
    28    25    26   ar
    29    26    27   ar
    30    17    18   ar
    31    18    19   ar
    32    19    20   ar
    33    10    11    1
    34    32    33   ar
    35    33    35    1
    36    35    36   am
    37    35    37    2
    38    33    34   ar
    39    34    29   ar
    40     8     3    1
    41    20    12    1
    42    11     6    1
    43    20    15   ar
    44    27    21   ar
    45    36    38    1
    46    36    39    1
@<TRIPOS>MOLECULE
*****
 41 46 0 0 0
SMALL
GASTEIGER

@<TRIPOS>ATOM
      1 C          63.3146   86.1257   12.4122 C.2     1  UNL1        0.2301
      2 O          63.5835   86.8116   13.7188 O.2     1  UNL1       -0.2745
      3 N          62.5438   86.8343   11.3379 N.am    1  UNL1       -0.2793
      4 C          62.0421   88.2286   11.5702 C.3     1  UNL1        0.0935
      5 C          61.2715   88.9371   10.4960 C.3     1  UNL1        0.0242
      6 C          61.0025   88.2512    9.1894 C.3     1  UNL1        0.0328
      7 C          61.5042   86.8569    8.9570 C.3     1  UNL1        0.0242
      8 C          62.2749   86.1484   10.0313 C.3     1  UNL1        0.0935
      9 C          60.3625   89.6015    9.0580 C.3     1  UNL1        0.0737
     10 N          59.9125   89.2533    7.6701 N.3     1  UNL1       -0.2702
     11 C          60.5525   87.9030    7.8014 C.3     1  UNL1        0.0737
     12 C          59.1418   89.9617    6.5958 C.3     1  UNL1        0.0801
     13 C          57.6480   90.0148    6.4715 C.3     1  UNL1        0.0251
     14 C          57.3125   90.8274    5.2561 C.3     1  UNL1        0.0278
     15 C          58.5991   91.2766    4.6293 C.ar    1  UNL1       -0.0248
     16 C          58.8873   92.1036    3.4116 C.ar    1  UNL1       -0.0030
     17 C          60.3060   92.3957    3.0219 C.ar    1  UNL1        0.0174
     18 C          61.4366   91.8607    3.8499 C.ar    1  UNL1        0.0012
     19 C          61.1484   91.0337    5.0676 C.ar    1  UNL1       -0.0032
     20 C          59.7297   90.7415    5.4574 C.ar    1  UNL1       -0.0117
     21 C          60.5941   93.2228    1.8041 C.ar    1  UNL1        0.0842
     22 C          59.8271   92.9850    0.5372 C.ar    1  UNL1        0.0339
     23 C          60.1152   93.8121   -0.6805 C.ar    1  UNL1        0.0626
     24 C          59.3481   93.5743   -1.9474 C.3     1  UNL1        0.0522
     25 N          61.1704   94.8771   -0.6313 N.ar    1  UNL1       -0.2283
     26 C          61.9375   95.1149    0.6356 C.ar    1  UNL1        0.1985
     27 N          61.6493   94.2877    1.8533 N.ar    1  UNL1       -0.2240
     28 C          63.8163   84.7314   12.1798 C.3     1  UNL1        0.1117
     29 C          61.4796   81.2118   13.7297 C.ar    1  UNL1        0.1389
     30 C          61.6965   81.3771   12.2547 C.ar    1  UNL1        0.0366
     31 C          62.4754   82.5503   11.7381 C.ar    1  UNL1       -0.0005
     32 C          63.0374   83.5581   12.6965 C.ar    1  UNL1       -0.0085
     33 C          62.8205   83.3928   14.1714 C.ar    1  UNL1        0.0527
     34 C          62.0416   82.2196   14.6880 C.ar    1  UNL1        0.0411
     35 C          63.3825   84.4006   15.1298 C.2     1  UNL1        0.2426
     36 N          64.8674   84.5754   15.2491 N.am    1  UNL1       -0.3253
     37 O          62.4595   85.2336   15.9689 O.2     1  UNL1       -0.2704
     38 H          65.4732   84.0286   14.6984 H       1  UNL1        0.1453
     39 H          65.2363   85.2368   15.8781 H       1  UNL1        0.1453
     40 C          59.2045   80.1086   14.3273 C.3     1  UNL1        0.2525
     41 O          60.7007   80.0385   14.2464 O.3     1  UNL1       -0.4714
@<TRIPOS>BOND
     1    40    41    1
     2    41    29    1
     3    29    30   ar
     4    30    31   ar
     5    31    32   ar
     6    32    28    1
     7    28     1    1
     8     1     2    2
     9     1     3   am
    10     3     4    1
    11     4     5    1
    12     5     6    1
    13     6     7    1
    14     7     8    1
    15     6     9    1
    16     9    10    1
    17    12    10    1
    18    12    13    1
    19    13    14    1
    20    14    15    1
    21    15    16   ar
    22    16    17   ar
    23    17    21    1
    24    21    22   ar
    25    22    23   ar
    26    23    24    1
    27    23    25   ar
    28    25    26   ar
    29    26    27   ar
    30    17    18   ar
    31    18    19   ar
    32    19    20   ar
    33    10    11    1
    34    32    33   ar
    35    33    35    1
    36    35    36   am
    37    35    37    2
    38    33    34   ar
    39    34    29   ar
    40     8     3    1
    41    20    12    1
    42    11     6    1
    43    20    15   ar
    44    27    21   ar
    45    36    38    1
    46    36    39    1
