@<TRIPOS>MOLECULE
*****
 30 34 0 0 0
SMALL
GASTEIGER

@<TRIPOS>ATOM
      1 N          65.1769   93.2110   11.3418 N.ar    1  UNL1       -0.3256
      2 C          64.3118   92.0133   11.0827 C.ar    1  UNL1        0.0367
      3 C          64.3883   91.1178   12.2835 C.ar    1  UNL1        0.0109
      4 C          65.3007   91.7619   13.2848 C.ar    1  UNL1        0.0167
      5 C          65.7507   91.3376   14.6514 C.ar    1  UNL1        0.0308
      6 C          66.6881   92.2070   15.4358 C.ar    1  UNL1        0.1402
      7 F          67.1381   91.7827   16.8024 F       1  UNL1       -0.2042
      8 C          67.1754   93.5007   14.8538 C.ar    1  UNL1        0.0311
      9 C          66.7254   93.9250   13.4873 C.ar    1  UNL1        0.0195
     10 C          65.7881   93.0556   12.7028 C.ar    1  UNL1        0.0598
     11 C          63.6173   89.8314   12.3101 C.3     1  UNL1        0.1216
     12 N          62.7697   89.4406   11.1358 N.am    1  UNL1       -0.2715
     13 C          61.9987   88.1541   11.1625 C.2     1  UNL1        0.2493
     14 O          62.0752   87.2585   12.3633 O.2     1  UNL1       -0.2699
     15 C          62.6932   90.3361    9.9350 C.3     1  UNL1        0.1003
     16 C          63.4642   91.6225    9.9084 C.3     1  UNL1        0.0650
     17 C          61.1512   87.7634    9.9881 C.ar    1  UNL1        0.0536
     18 C          59.8415   88.4533    9.7456 C.ar    1  UNL1        0.0045
     19 C          58.9941   88.0625    8.5713 C.ar    1  UNL1        0.0001
     20 C          59.4562   86.9818    7.6394 C.ar    1  UNL1        0.0000
     21 C          60.7659   86.2917    7.8819 C.ar    1  UNL1        0.0001
     22 C          61.2280   85.2110    6.9501 C.ar    1  UNL1        0.0000
     23 C          62.5377   84.5210    7.1926 C.ar    1  UNL1        0.0000
     24 C          63.3851   84.9118    8.3670 C.ar    1  UNL1        0.0000
     25 C          62.9230   85.9926    9.2988 C.ar    1  UNL1        0.0001
     26 C          61.6134   86.6825    9.0563 C.ar    1  UNL1        0.0044
     27 C          65.3929   94.3620   10.4045 C.3     1  UNL1        0.1474
     28 O          66.9473   96.4437   10.4279 O.co2   1  UNL1       -0.5472
     29 C          66.7585   94.9651   10.2595 C.2     1  UNL1        0.0732
     30 O          67.9357   94.0898    9.9461 O.co2   1  UNL1       -0.5472
@<TRIPOS>UNITY_ATOM_ATTR
28 1
charge -1
@<TRIPOS>BOND
     1    28    29   ar
     2    29    30   ar
     3    29    27    1
     4    27     1    1
     5     1     2   ar
     6     2     3   ar
     7     3     4   ar
     8     4     5   ar
     9     5     6   ar
    10     6     7    1
    11     6     8   ar
    12     8     9   ar
    13     9    10   ar
    14     3    11    1
    15    11    12    1
    16    12    13   am
    17    13    14    2
    18    13    17    1
    19    17    18   ar
    20    18    19   ar
    21    19    20   ar
    22    20    21   ar
    23    21    22   ar
    24    22    23   ar
    25    23    24   ar
    26    24    25   ar
    27    25    26   ar
    28    12    15    1
    29    15    16    1
    30    10     1   ar
    31    26    17   ar
    32    16     2    1
    33    10     4   ar
    34    26    21   ar
@<TRIPOS>MOLECULE
*****
 30 34 0 0 0
SMALL
GASTEIGER

@<TRIPOS>ATOM
      1 N          63.0070   89.7047   11.4551 N.ar    1  UNL1       -0.3256
      2 C          63.0263   88.3173   12.0248 C.ar    1  UNL1        0.0367
      3 C          63.8865   88.3327   13.2536 C.ar    1  UNL1        0.0109
      4 C          64.3988   89.7297   13.4433 C.ar    1  UNL1        0.0167
      5 C          65.2900   90.3392   14.4845 C.ar    1  UNL1        0.0308
      6 C          65.6377   91.7966   14.4143 C.ar    1  UNL1        0.1402
      7 F          66.5289   92.4061   15.4556 F       1  UNL1       -0.2042
      8 C          65.0941   92.6446   13.3027 C.ar    1  UNL1        0.0311
      9 C          64.2029   92.0351   12.2615 C.ar    1  UNL1        0.0195
     10 C          63.8553   90.5777   12.3317 C.ar    1  UNL1        0.0598
     11 C          64.0921   87.0727   14.0410 C.3     1  UNL1        0.1216
     12 N          63.4376   85.7972   13.5996 N.am    1  UNL1       -0.2715
     13 C          63.6433   84.5371   14.3871 C.2     1  UNL1        0.2493
     14 O          64.5034   84.5526   15.6158 O.2     1  UNL1       -0.2699
     15 C          62.5774   85.7818   12.3708 C.3     1  UNL1        0.1003
     16 C          62.3718   87.0418   11.5834 C.3     1  UNL1        0.0650
     17 C          62.9887   83.2617   13.9456 C.ar    1  UNL1        0.0536
     18 C          62.0117   82.5685   14.8483 C.ar    1  UNL1        0.0045
     19 C          61.3571   81.2931   14.4068 C.ar    1  UNL1        0.0001
     20 C          61.6796   80.7109   13.0626 C.ar    1  UNL1        0.0000
     21 C          62.6567   81.4041   12.1598 C.ar    1  UNL1        0.0001
     22 C          62.9792   80.8218   10.8156 C.ar    1  UNL1        0.0000
     23 C          63.9562   81.5150    9.9129 C.ar    1  UNL1        0.0000
     24 C          64.6107   82.7905   10.3544 C.ar    1  UNL1        0.0000
     25 C          64.2883   83.3727   11.6986 C.ar    1  UNL1        0.0001
     26 C          63.3112   82.6795   12.6013 C.ar    1  UNL1        0.0044
     27 C          62.2691   90.1425   10.2247 C.3     1  UNL1        0.1474
     28 O          60.1880   89.1442    9.0320 O.co2   1  UNL1       -0.5472
     29 C          60.7823   89.9642   10.1387 C.2     1  UNL1        0.0732
     30 O          59.8896   90.6058   11.1592 O.co2   1  UNL1       -0.5472
@<TRIPOS>UNITY_ATOM_ATTR
28 1
charge -1
@<TRIPOS>BOND
     1    28    29   ar
     2    29    30   ar
     3    29    27    1
     4    27     1    1
     5     1     2   ar
     6     2     3   ar
     7     3     4   ar
     8     4     5   ar
     9     5     6   ar
    10     6     7    1
    11     6     8   ar
    12     8     9   ar
    13     9    10   ar
    14     3    11    1
    15    11    12    1
    16    12    13   am
    17    13    14    2
    18    13    17    1
    19    17    18   ar
    20    18    19   ar
    21    19    20   ar
    22    20    21   ar
    23    21    22   ar
    24    22    23   ar
    25    23    24   ar
    26    24    25   ar
    27    25    26   ar
    28    12    15    1
    29    15    16    1
    30    10     1   ar
    31    26    17   ar
    32    16     2    1
    33    10     4   ar
    34    26    21   ar
