@<TRIPOS>MOLECULE
*****
 34 35 0 0 0
SMALL
GASTEIGER

@<TRIPOS>ATOM
      1 C          65.0740   91.3795   12.9935 C.2     1  UNL1        0.0707
      2 C          65.2977   92.0412   11.6661 C.2     1  UNL1        0.0283
      3 C          66.5085   92.9001   11.4507 C.3     1  UNL1        0.0470
      4 N          64.3107   91.8439   10.5539 N.pl3   1  UNL1       -0.3192
      5 C          63.1000   90.9851   10.7692 C.2     1  UNL1        0.0283
      6 C          62.1129   90.7878    9.6571 C.3     1  UNL1        0.0470
      7 C          62.8763   90.3234   12.0967 C.2     1  UNL1        0.0707
      8 C          63.8633   90.5207   13.2088 C.3     1  UNL1        0.0812
      9 H          64.4575   92.2782    9.6827 H       1  UNL1        0.1516
     10 C          63.6395   89.8590   14.5363 C.ar    1  UNL1       -0.0138
     11 C          63.4235   90.6939   15.7636 C.ar    1  UNL1       -0.0036
     12 C          63.1998   90.0323   17.0910 C.ar    1  UNL1       -0.0003
     13 C          63.1920   88.5357   17.1913 C.ar    1  UNL1       -0.0000
     14 C          63.4080   87.7007   15.9640 C.ar    1  UNL1       -0.0003
     15 C          63.6318   88.3624   14.6365 C.ar    1  UNL1       -0.0031
     16 C          63.8478   87.5274   13.4093 C.2     1  UNL1        0.0064
     17 C          63.2391   86.1596   13.3160 C.2     1  UNL1        0.0819
     18 C          63.4551   85.3246   12.0888 C.2     1  UNL1        0.3412
     19 O          62.8618   85.7499   10.7783 O.2     1  UNL1       -0.2449
     20 O          64.2643   84.0644   12.1720 O.3     1  UNL1       -0.4527
     21 C          63.6781   82.7645   11.7064 C.3     1  UNL1        0.1366
     22 C          62.8856   82.6671   12.9762 C.3     1  UNL1        0.0437
     23 C          64.4706   82.8620   10.4366 C.3     1  UNL1        0.0437
     24 C          63.0919   81.4647   11.2408 C.3     1  UNL1        0.0437
     25 C          66.0611   91.5768   14.1057 C.2     1  UNL1        0.3387
     26 O          67.1722   90.5893   14.3062 O.2     1  UNL1       -0.2452
     27 O          65.9370   92.7615   15.0173 O.3     1  UNL1       -0.4456
     28 C          68.2935   93.5573   15.7681 C.3     1  UNL1        0.0513
     29 C          66.9489   92.9822   16.1022 C.3     1  UNL1        0.2089
     30 C          61.6655   89.4645   12.3120 C.2     1  UNL1        0.3387
     31 O          60.6663   89.8285   13.3699 O.2     1  UNL1       -0.2452
     32 O          61.4539   88.2416   11.4695 O.3     1  UNL1       -0.4456
     33 C          60.1088   87.9724   10.8627 C.3     1  UNL1        0.2089
     34 C          60.0038   87.5600    9.4244 C.3     1  UNL1        0.0513
@<TRIPOS>BOND
     1    28    29    1
     2    29    27    1
     3    27    25    1
     4    25    26    2
     5    25     1    1
     6     1     2    2
     7     2     3    1
     8     2     4    1
     9     4     5    1
    10     5     6    1
    11     5     7    2
    12     7    30    1
    13    30    31    2
    14    30    32    1
    15    32    33    1
    16    33    34    1
    17     7     8    1
    18     8    10    1
    19    10    11   ar
    20    11    12   ar
    21    12    13   ar
    22    13    14   ar
    23    14    15   ar
    24    15    16    1
    25    16    17    2
    26    17    18    1
    27    18    19    2
    28    18    20    1
    29    20    21    1
    30    21    22    1
    31    21    23    1
    32    21    24    1
    33     8     1    1
    34    15    10   ar
    35     4     9    1
@<TRIPOS>MOLECULE
*****
 34 35 0 0 0
SMALL
GASTEIGER

@<TRIPOS>ATOM
      1 C          62.8554   90.3265   12.1057 C.2     1  UNL1        0.0707
      2 C          63.0722   90.9942   10.7802 C.2     1  UNL1        0.0283
      3 C          62.0795   90.8017    9.6721 C.3     1  UNL1        0.0470
      4 N          64.2816   91.8545   10.5626 N.pl3   1  UNL1       -0.3192
      5 C          65.2742   92.0470   11.6705 C.2     1  UNL1        0.0283
      6 C          66.4836   92.9072   11.4529 C.3     1  UNL1        0.0470
      7 C          65.0574   91.3793   12.9961 C.2     1  UNL1        0.0707
      8 C          63.8480   90.5191   13.2137 C.3     1  UNL1        0.0812
      9 H          64.4239   92.2927    9.6925 H       1  UNL1        0.1516
     10 C          63.6312   89.8513   14.5393 C.ar    1  UNL1       -0.0138
     11 C          63.4227   90.6807   15.7716 C.ar    1  UNL1       -0.0036
     12 C          63.2060   90.0131   17.0972 C.ar    1  UNL1       -0.0003
     13 C          63.1977   88.5160   17.1905 C.ar    1  UNL1       -0.0000
     14 C          63.4062   87.6866   15.9582 C.ar    1  UNL1       -0.0003
     15 C          63.6230   88.3543   14.6326 C.ar    1  UNL1       -0.0031
     16 C          63.8315   87.5249   13.4003 C.2     1  UNL1        0.0064
     17 C          63.2458   86.1465   13.3160 C.2     1  UNL1        0.0819
     18 C          63.4543   85.3171   12.0836 C.2     1  UNL1        0.3412
     19 O          62.8409   85.7406   10.7819 O.2     1  UNL1       -0.2449
     20 O          64.2762   84.0642   12.1530 O.3     1  UNL1       -0.4527
     21 C          63.6769   82.7506   11.7465 C.3     1  UNL1        0.1366
     22 C          63.0015   82.6455   13.0817 C.3     1  UNL1        0.0437
     23 C          64.3523   82.8557   10.4112 C.3     1  UNL1        0.0437
     24 C          63.0776   81.4370   11.3399 C.3     1  UNL1        0.0437
     25 C          61.6460   89.4663   12.3233 C.2     1  UNL1        0.3387
     26 O          60.6382   89.8400   13.3696 O.2     1  UNL1       -0.2452
     27 O          61.4443   88.2324   11.4947 O.3     1  UNL1       -0.4456
     28 C          60.0601   87.5168    9.4157 C.3     1  UNL1        0.0513
     29 C          60.1181   87.9751   10.8429 C.3     1  UNL1        0.2089
     30 C          66.0501   91.5718   14.1041 C.2     1  UNL1        0.3387
     31 O          67.1313   90.5564   14.3271 O.2     1  UNL1       -0.2452
     32 O          65.9614   92.7796   14.9891 O.3     1  UNL1       -0.4456
     33 C          66.9571   92.9748   16.0938 C.3     1  UNL1        0.2089
     34 C          68.3232   93.5124   15.7860 C.3     1  UNL1        0.0513
@<TRIPOS>BOND
     1    28    29    1
     2    29    27    1
     3    27    25    1
     4    25    26    2
     5    25     1    1
     6     1     2    2
     7     2     3    1
     8     2     4    1
     9     4     5    1
    10     5     6    1
    11     5     7    2
    12     7    30    1
    13    30    31    2
    14    30    32    1
    15    32    33    1
    16    33    34    1
    17     7     8    1
    18     8    10    1
    19    10    11   ar
    20    11    12   ar
    21    12    13   ar
    22    13    14   ar
    23    14    15   ar
    24    15    16    1
    25    16    17    2
    26    17    18    1
    27    18    19    2
    28    18    20    1
    29    20    21    1
    30    21    22    1
    31    21    23    1
    32    21    24    1
    33     8     1    1
    34    15    10   ar
    35     4     9    1
@<TRIPOS>MOLECULE
*****
 34 35 0 0 0
SMALL
GASTEIGER

@<TRIPOS>ATOM
      1 C          63.7542   87.2158   13.6479 C.2     1  UNL1        0.0707
      2 C          63.5287   86.2098   12.5583 C.2     1  UNL1        0.0283
      3 C          63.8635   84.7660   12.7895 C.3     1  UNL1        0.0470
      4 N          62.9685   86.6477   11.2376 N.pl3   1  UNL1       -0.3192
      5 C          62.6337   88.0914   11.0064 C.2     1  UNL1        0.0283
      6 C          62.0734   88.5292    9.6856 C.3     1  UNL1        0.0470
      7 C          62.8592   89.0973   12.0960 C.2     1  UNL1        0.0707
      8 C          63.4194   88.6595   13.4167 C.3     1  UNL1        0.0812
      9 H          62.8205   85.9874   10.5224 H       1  UNL1        0.1516
     10 C          63.6449   89.6655   14.5063 C.ar    1  UNL1       -0.0138
     11 C          62.7910   89.6398   15.7393 C.ar    1  UNL1       -0.0036
     12 C          63.0165   90.6457   16.8289 C.ar    1  UNL1       -0.0003
     13 C          64.0959   91.6775   16.6855 C.ar    1  UNL1       -0.0000
     14 C          64.9498   91.7032   15.4526 C.ar    1  UNL1       -0.0003
     15 C          64.7243   90.6972   14.3630 C.ar    1  UNL1       -0.0031
     16 C          65.5782   90.7229   13.1300 C.2     1  UNL1        0.0064
     17 C          66.5129   91.8711   12.8889 C.2     1  UNL1        0.0819
     18 C          67.3668   91.8969   11.6559 C.2     1  UNL1        0.3412
     19 O          68.8154   91.5164   11.7388 O.2     1  UNL1       -0.2449
     20 O          66.7721   92.3030   10.3401 O.3     1  UNL1       -0.4527
     21 C          67.2443   93.5524    9.6574 C.3     1  UNL1        0.1366
     22 C          68.3009   92.7629    8.9432 C.3     1  UNL1        0.0437
     23 C          66.1877   94.3420   10.3717 C.3     1  UNL1        0.0437
     24 C          67.7164   94.8018    8.9747 C.3     1  UNL1        0.0437
     25 C          64.3145   86.7779   14.9687 C.2     1  UNL1        0.3387
     26 O          65.7251   86.2754   15.0555 O.2     1  UNL1       -0.2452
     27 O          63.4642   86.8427   16.2026 O.3     1  UNL1       -0.4456
     28 C          62.3626   84.5109   15.8872 C.3     1  UNL1        0.0513
     29 C          62.8963   85.5843   16.7890 C.3     1  UNL1        0.2089
     30 C          62.5244   90.5411   11.8648 C.2     1  UNL1        0.3387
     31 O          63.5459   91.4611   11.2649 O.2     1  UNL1       -0.2452
     32 O          61.1681   91.0649   12.2336 O.3     1  UNL1       -0.4456
     33 C          59.9418   90.4942   11.5849 C.3     1  UNL1        0.2089
     34 C          59.1991   89.3698   12.2437 C.3     1  UNL1        0.0513
@<TRIPOS>BOND
     1    28    29    1
     2    29    27    1
     3    27    25    1
     4    25    26    2
     5    25     1    1
     6     1     2    2
     7     2     3    1
     8     2     4    1
     9     4     5    1
    10     5     6    1
    11     5     7    2
    12     7    30    1
    13    30    31    2
    14    30    32    1
    15    32    33    1
    16    33    34    1
    17     7     8    1
    18     8    10    1
    19    10    11   ar
    20    11    12   ar
    21    12    13   ar
    22    13    14   ar
    23    14    15   ar
    24    15    16    1
    25    16    17    2
    26    17    18    1
    27    18    19    2
    28    18    20    1
    29    20    21    1
    30    21    22    1
    31    21    23    1
    32    21    24    1
    33     8     1    1
    34    15    10   ar
    35     4     9    1
@<TRIPOS>MOLECULE
*****
 34 35 0 0 0
SMALL
GASTEIGER

@<TRIPOS>ATOM
      1 C          62.8632   89.1087   12.0971 C.2     1  UNL1        0.0707
      2 C          62.6353   88.0993   11.0112 C.2     1  UNL1        0.0283
      3 C          62.0715   88.5328    9.6905 C.3     1  UNL1        0.0470
      4 N          62.9711   86.6563   11.2460 N.pl3   1  UNL1       -0.3192
      5 C          63.5349   86.2228   12.5667 C.2     1  UNL1        0.0283
      6 C          63.8707   84.7798   12.8014 C.3     1  UNL1        0.0470
      7 C          63.7628   87.2322   13.6525 C.2     1  UNL1        0.0707
      8 C          63.4270   88.6751   13.4177 C.3     1  UNL1        0.0812
      9 H          62.8215   85.9939   10.5333 H       1  UNL1        0.1516
     10 C          63.6550   89.6845   14.5037 C.ar    1  UNL1       -0.0138
     11 C          62.8034   89.6631   15.7383 C.ar    1  UNL1       -0.0036
     12 C          63.0313   90.6724   16.8243 C.ar    1  UNL1       -0.0003
     13 C          64.1109   91.7032   16.6756 C.ar    1  UNL1       -0.0000
     14 C          64.9624   91.7247   15.4409 C.ar    1  UNL1       -0.0003
     15 C          64.7345   90.7153   14.3550 C.ar    1  UNL1       -0.0031
     16 C          65.5860   90.7367   13.1203 C.2     1  UNL1        0.0064
     17 C          66.5205   91.8839   12.8736 C.2     1  UNL1        0.0819
     18 C          67.3720   91.9054   11.6389 C.2     1  UNL1        0.3412
     19 O          68.8208   91.5249   11.7203 O.2     1  UNL1       -0.2449
     20 O          66.7750   92.3073   10.3229 O.3     1  UNL1       -0.4527
     21 C          67.2412   93.5579    9.6384 C.3     1  UNL1        0.1366
     22 C          68.3054   92.7733    8.9298 C.3     1  UNL1        0.0437
     23 C          66.1771   94.3424   10.3470 C.3     1  UNL1        0.0437
     24 C          67.7075   94.8085    8.9539 C.3     1  UNL1        0.0437
     25 C          62.5274   90.5516   11.8623 C.2     1  UNL1        0.3387
     26 O          63.5492   91.4715   11.2626 O.2     1  UNL1       -0.2452
     27 O          61.1698   91.0747   12.2272 O.3     1  UNL1       -0.4456
     28 C          59.1874   89.3955   12.2545 C.3     1  UNL1        0.0513
     29 C          59.9454   90.4997   11.5790 C.3     1  UNL1        0.2089
     30 C          64.3266   86.7986   14.9733 C.2     1  UNL1        0.3387
     31 O          65.7421   86.3099   15.0604 O.2     1  UNL1       -0.2452
     32 O          63.4750   86.8538   16.2068 O.3     1  UNL1       -0.4456
     33 C          62.9469   85.5864   16.8110 C.3     1  UNL1        0.2089
     34 C          62.2997   84.5523   15.9382 C.3     1  UNL1        0.0513
@<TRIPOS>BOND
     1    28    29    1
     2    29    27    1
     3    27    25    1
     4    25    26    2
     5    25     1    1
     6     1     2    2
     7     2     3    1
     8     2     4    1
     9     4     5    1
    10     5     6    1
    11     5     7    2
    12     7    30    1
    13    30    31    2
    14    30    32    1
    15    32    33    1
    16    33    34    1
    17     7     8    1
    18     8    10    1
    19    10    11   ar
    20    11    12   ar
    21    12    13   ar
    22    13    14   ar
    23    14    15   ar
    24    15    16    1
    25    16    17    2
    26    17    18    1
    27    18    19    2
    28    18    20    1
    29    20    21    1
    30    21    22    1
    31    21    23    1
    32    21    24    1
    33     8     1    1
    34    15    10   ar
    35     4     9    1
@<TRIPOS>MOLECULE
*****
 34 35 0 0 0
SMALL
GASTEIGER

@<TRIPOS>ATOM
      1 C          63.6897   90.5804   14.5653 C.2     1  UNL1        0.0707
      2 C          64.4795   91.3577   15.5763 C.2     1  UNL1        0.0283
      3 C          64.2555   91.1270   17.0415 C.3     1  UNL1        0.0470
      4 N          65.4931   92.3658   15.1222 N.pl3   1  UNL1       -0.3192
      5 C          65.7171   92.5966   13.6571 C.2     1  UNL1        0.0283
      6 C          66.7308   93.6047   13.2029 C.3     1  UNL1        0.0470
      7 C          64.9274   91.8193   12.6461 C.2     1  UNL1        0.0707
      8 C          63.9137   90.8112   13.1002 C.3     1  UNL1        0.0812
      9 H          66.0114   92.8760   15.7857 H       1  UNL1        0.1516
     10 C          63.1240   90.0339   12.0892 C.ar    1  UNL1       -0.0138
     11 C          62.2916   90.7560   11.0714 C.ar    1  UNL1       -0.0036
     12 C          61.5019   89.9787   10.0604 C.ar    1  UNL1       -0.0003
     13 C          61.5445   88.4793   10.0671 C.ar    1  UNL1       -0.0000
     14 C          62.3768   87.7572   11.0848 C.ar    1  UNL1       -0.0003
     15 C          63.1666   88.5345   12.0959 C.ar    1  UNL1       -0.0031
     16 C          63.9989   87.8124   13.1136 C.2     1  UNL1        0.0064
     17 C          63.8193   86.3374   13.3194 C.2     1  UNL1        0.0819
     18 C          64.6516   85.6153   14.3371 C.2     1  UNL1        0.3412
     19 O          65.3658   86.3877   15.4065 O.2     1  UNL1       -0.2449
     20 O          64.7698   84.1209   14.2856 O.3     1  UNL1       -0.4527
     21 C          63.5391   83.2758   14.1403 C.3     1  UNL1        0.1366
     22 C          64.0486   82.7595   12.8274 C.3     1  UNL1        0.0437
     23 C          63.0296   83.7921   15.4533 C.3     1  UNL1        0.0437
     24 C          62.3083   82.4307   13.9951 C.3     1  UNL1        0.0437
     25 C          62.6761   89.5723   15.0194 C.2     1  UNL1        0.3387
     26 O          61.2225   89.7799   14.7130 O.2     1  UNL1       -0.2452
     27 O          63.1160   88.3566   15.7800 O.3     1  UNL1       -0.4456
     28 C          62.7180   86.7632   17.7932 C.3     1  UNL1        0.0513
     29 C          62.6243   88.1284   17.1787 C.3     1  UNL1        0.2089
     30 C          65.1513   92.0500   11.1809 C.2     1  UNL1        0.3387
     31 O          64.0324   92.5613   10.3226 O.2     1  UNL1       -0.2452
     32 O          66.4941   91.7696   10.5741 O.3     1  UNL1       -0.4456
     33 C          67.2322   92.8569    9.8509 C.3     1  UNL1        0.2089
     34 C          68.5441   92.5595    9.1873 C.3     1  UNL1        0.0513
@<TRIPOS>BOND
     1    28    29    1
     2    29    27    1
     3    27    25    1
     4    25    26    2
     5    25     1    1
     6     1     2    2
     7     2     3    1
     8     2     4    1
     9     4     5    1
    10     5     6    1
    11     5     7    2
    12     7    30    1
    13    30    31    2
    14    30    32    1
    15    32    33    1
    16    33    34    1
    17     7     8    1
    18     8    10    1
    19    10    11   ar
    20    11    12   ar
    21    12    13   ar
    22    13    14   ar
    23    14    15   ar
    24    15    16    1
    25    16    17    2
    26    17    18    1
    27    18    19    2
    28    18    20    1
    29    20    21    1
    30    21    22    1
    31    21    23    1
    32    21    24    1
    33     8     1    1
    34    15    10   ar
    35     4     9    1
@<TRIPOS>MOLECULE
*****
 34 35 0 0 0
SMALL
GASTEIGER

@<TRIPOS>ATOM
      1 C          61.1326   87.2671   10.3195 C.2     1  UNL1        0.0707
      2 C          60.6815   87.4661    8.9029 C.2     1  UNL1        0.0283
      3 C          59.7379   88.5825    8.5661 C.3     1  UNL1        0.0470
      4 N          61.1738   86.5487    7.8231 N.pl3   1  UNL1       -0.3192
      5 C          62.1172   85.4323    8.1599 C.2     1  UNL1        0.0283
      6 C          62.6095   84.5148    7.0801 C.3     1  UNL1        0.0470
      7 C          62.5684   85.2333    9.5765 C.2     1  UNL1        0.0707
      8 C          62.0761   86.1507   10.6563 C.3     1  UNL1        0.0812
      9 H          60.8776   86.6793    6.8933 H       1  UNL1        0.1516
     10 C          62.5273   85.9517   12.0730 C.ar    1  UNL1       -0.0138
     11 C          62.2776   84.6433   12.7628 C.ar    1  UNL1       -0.0036
     12 C          62.7287   84.4442   14.1794 C.ar    1  UNL1       -0.0003
     13 C          63.4297   85.5535   14.9062 C.ar    1  UNL1       -0.0000
     14 C          63.6794   86.8619   14.2164 C.ar    1  UNL1       -0.0003
     15 C          63.2282   87.0609   12.7997 C.ar    1  UNL1       -0.0031
     16 C          63.4780   88.3693   12.1099 C.2     1  UNL1        0.0064
     17 C          63.7873   89.5955   12.9167 C.2     1  UNL1        0.0819
     18 C          64.0371   90.9038   12.2268 C.2     1  UNL1        0.3412
     19 O          63.7220   91.0546   10.7680 O.2     1  UNL1       -0.2449
     20 O          64.6018   92.0613   12.9957 O.3     1  UNL1       -0.4527
     21 C          66.0472   92.0617   13.3965 C.3     1  UNL1        0.1366
     22 C          65.6635   91.6303   14.7809 C.3     1  UNL1        0.0437
     23 C          66.4310   92.4932   12.0121 C.3     1  UNL1        0.0437
     24 C          67.4927   92.0622   13.7974 C.3     1  UNL1        0.0437
     25 C          60.6403   88.1845   11.3993 C.2     1  UNL1        0.3387
     26 O          59.6751   87.6793   12.4304 O.2     1  UNL1       -0.2452
     27 O          61.1133   89.6071   11.4481 O.3     1  UNL1       -0.4456
     28 C          58.8633   90.8869   11.6721 C.3     1  UNL1        0.0513
     29 C          60.2009   90.7161   11.0148 C.3     1  UNL1        0.2089
     30 C          63.5119   84.1168    9.9134 C.2     1  UNL1        0.3387
     31 O          64.9698   84.4034   10.1192 O.2     1  UNL1       -0.2452
     32 O          62.9975   82.7139   10.0444 O.3     1  UNL1       -0.4456
     33 C          63.6577   81.7586   10.9939 C.3     1  UNL1        0.2089
     34 C          62.8492   81.0837   12.0619 C.3     1  UNL1        0.0513
@<TRIPOS>BOND
     1    28    29    1
     2    29    27    1
     3    27    25    1
     4    25    26    2
     5    25     1    1
     6     1     2    2
     7     2     3    1
     8     2     4    1
     9     4     5    1
    10     5     6    1
    11     5     7    2
    12     7    30    1
    13    30    31    2
    14    30    32    1
    15    32    33    1
    16    33    34    1
    17     7     8    1
    18     8    10    1
    19    10    11   ar
    20    11    12   ar
    21    12    13   ar
    22    13    14   ar
    23    14    15   ar
    24    15    16    1
    25    16    17    2
    26    17    18    1
    27    18    19    2
    28    18    20    1
    29    20    21    1
    30    21    22    1
    31    21    23    1
    32    21    24    1
    33     8     1    1
    34    15    10   ar
    35     4     9    1
@<TRIPOS>MOLECULE
*****
 34 35 0 0 0
SMALL
GASTEIGER

@<TRIPOS>ATOM
      1 C          62.6051   85.2252    9.5988 C.2     1  UNL1        0.0707
      2 C          62.1639   85.4276    8.1796 C.2     1  UNL1        0.0283
      3 C          62.6602   84.5100    7.1017 C.3     1  UNL1        0.0470
      4 N          61.2263   86.5476    7.8382 N.pl3   1  UNL1       -0.3192
      5 C          60.7300   87.4652    8.9160 C.2     1  UNL1        0.0283
      6 C          59.7924   88.5851    8.5745 C.3     1  UNL1        0.0470
      7 C          61.1712   87.2627   10.3352 C.2     1  UNL1        0.0707
      8 C          62.1088   86.1427   10.6766 C.3     1  UNL1        0.0812
      9 H          60.9367   86.6804    6.9067 H       1  UNL1        0.1516
     10 C          62.5501   85.9403   12.0960 C.ar    1  UNL1       -0.0138
     11 C          62.3033   84.6274   12.7781 C.ar    1  UNL1       -0.0036
     12 C          62.7446   84.4249   14.1973 C.ar    1  UNL1       -0.0003
     13 C          63.4325   85.5355   14.9345 C.ar    1  UNL1       -0.0000
     14 C          63.6792   86.8484   14.2524 C.ar    1  UNL1       -0.0003
     15 C          63.2380   87.0508   12.8331 C.ar    1  UNL1       -0.0031
     16 C          63.4847   88.3638   12.1510 C.2     1  UNL1        0.0064
     17 C          63.8073   89.5824   12.9641 C.2     1  UNL1        0.0819
     18 C          64.0540   90.8954   12.2820 C.2     1  UNL1        0.3412
     19 O          63.7624   91.0467   10.8183 O.2     1  UNL1       -0.2449
     20 O          64.5924   92.0570   13.0634 O.3     1  UNL1       -0.4527
     21 C          66.0303   92.0721   13.4900 C.3     1  UNL1        0.1366
     22 C          65.6252   91.6479   14.8706 C.3     1  UNL1        0.0437
     23 C          66.4355   92.4963   12.1095 C.3     1  UNL1        0.0437
     24 C          67.4683   92.0872   13.9166 C.3     1  UNL1        0.0437
     25 C          63.5427   84.1052    9.9403 C.2     1  UNL1        0.3387
     26 O          64.9869   84.3957   10.2226 O.2     1  UNL1       -0.2452
     27 O          63.0360   82.6946    9.9994 O.3     1  UNL1       -0.4456
     28 C          62.7967   81.1094   12.0439 C.3     1  UNL1        0.0513
     29 C          63.6418   81.7200   10.9654 C.3     1  UNL1        0.2089
     30 C          60.6749   88.1803   11.4131 C.2     1  UNL1        0.3387
     31 O          59.7121   87.6730   12.4453 O.2     1  UNL1       -0.2452
     32 O          61.1415   89.6052   11.4587 O.3     1  UNL1       -0.4456
     33 C          60.2172   90.7107   11.0419 C.3     1  UNL1        0.2089
     34 C          58.8608   90.8315   11.6708 C.3     1  UNL1        0.0513
@<TRIPOS>BOND
     1    28    29    1
     2    29    27    1
     3    27    25    1
     4    25    26    2
     5    25     1    1
     6     1     2    2
     7     2     3    1
     8     2     4    1
     9     4     5    1
    10     5     6    1
    11     5     7    2
    12     7    30    1
    13    30    31    2
    14    30    32    1
    15    32    33    1
    16    33    34    1
    17     7     8    1
    18     8    10    1
    19    10    11   ar
    20    11    12   ar
    21    12    13   ar
    22    13    14   ar
    23    14    15   ar
    24    15    16    1
    25    16    17    2
    26    17    18    1
    27    18    19    2
    28    18    20    1
    29    20    21    1
    30    21    22    1
    31    21    23    1
    32    21    24    1
    33     8     1    1
    34    15    10   ar
    35     4     9    1
@<TRIPOS>MOLECULE
*****
 34 35 0 0 0
SMALL
GASTEIGER

@<TRIPOS>ATOM
      1 C          62.1708   86.3894   11.6068 C.2     1  UNL1        0.0707
      2 C          62.2475   86.1406   10.1296 C.2     1  UNL1        0.0283
      3 C          61.5166   87.0413    9.1784 C.3     1  UNL1        0.0470
      4 N          63.0550   84.9911    9.6036 N.pl3   1  UNL1       -0.3192
      5 C          63.7858   84.0905   10.5547 C.2     1  UNL1        0.0283
      6 C          64.5933   82.9411   10.0287 C.3     1  UNL1        0.0470
      7 C          63.7091   84.3393   12.0319 C.2     1  UNL1        0.0707
      8 C          62.9017   85.4888   12.5579 C.3     1  UNL1        0.0812
      9 H          63.1053   84.8278    8.6340 H       1  UNL1        0.1516
     10 C          62.8250   85.7376   14.0352 C.ar    1  UNL1       -0.0138
     11 C          62.1652   84.7323   14.9319 C.ar    1  UNL1       -0.0036
     12 C          62.0885   84.9810   16.4091 C.ar    1  UNL1       -0.0003
     13 C          62.6717   86.2352   16.9897 C.ar    1  UNL1       -0.0000
     14 C          63.3316   87.2405   16.0931 C.ar    1  UNL1       -0.0003
     15 C          63.4082   86.9917   14.6158 C.ar    1  UNL1       -0.0031
     16 C          64.0681   87.9970   13.7192 C.2     1  UNL1        0.0064
     17 C          64.1850   89.4277   14.1547 C.2     1  UNL1        0.0819
     18 C          64.8449   90.4330   13.2581 C.2     1  UNL1        0.3412
     19 O          64.1446   90.9066   12.0190 O.2     1  UNL1       -0.2449
     20 O          66.2050   90.9648   13.6005 O.3     1  UNL1       -0.4527
     21 C          66.4035   92.4364   13.8122 C.3     1  UNL1        0.1366
     22 C          65.9861   92.2867   15.2451 C.3     1  UNL1        0.0437
     23 C          66.8208   92.5862   12.3792 C.3     1  UNL1        0.0437
     24 C          66.6019   93.9081   14.0238 C.3     1  UNL1        0.0437
     25 C          61.3634   87.5389   12.1329 C.2     1  UNL1        0.3387
     26 O          60.0364   87.2869   12.7853 O.2     1  UNL1       -0.2452
     27 O          61.8828   88.9404   12.0065 O.3     1  UNL1       -0.4456
     28 C          60.0618   90.0891   10.5524 C.3     1  UNL1        0.0513
     29 C          60.9298   90.0755   11.7757 C.3     1  UNL1        0.2089
     30 C          64.4400   83.4387   12.9831 C.2     1  UNL1        0.3387
     31 O          65.6253   83.9548   13.7438 O.2     1  UNL1       -0.2452
     32 O          63.9855   82.0220   13.1737 O.3     1  UNL1       -0.4456
     33 C          62.5596   81.6480   12.8962 C.3     1  UNL1        0.2089
     34 C          61.6894   81.1349   14.0049 C.3     1  UNL1        0.0513
@<TRIPOS>BOND
     1    28    29    1
     2    29    27    1
     3    27    25    1
     4    25    26    2
     5    25     1    1
     6     1     2    2
     7     2     3    1
     8     2     4    1
     9     4     5    1
    10     5     6    1
    11     5     7    2
    12     7    30    1
    13    30    31    2
    14    30    32    1
    15    32    33    1
    16    33    34    1
    17     7     8    1
    18     8    10    1
    19    10    11   ar
    20    11    12   ar
    21    12    13   ar
    22    13    14   ar
    23    14    15   ar
    24    15    16    1
    25    16    17    2
    26    17    18    1
    27    18    19    2
    28    18    20    1
    29    20    21    1
    30    21    22    1
    31    21    23    1
    32    21    24    1
    33     8     1    1
    34    15    10   ar
    35     4     9    1
@<TRIPOS>MOLECULE
*****
 34 35 0 0 0
SMALL
GASTEIGER

@<TRIPOS>ATOM
      1 C          63.7540   84.2867   12.0414 C.2     1  UNL1        0.0707
      2 C          63.8388   84.0224   10.5674 C.2     1  UNL1        0.0283
      3 C          64.6563   82.8727   10.0574 C.3     1  UNL1        0.0470
      4 N          63.1062   84.9076    9.6032 N.pl3   1  UNL1       -0.3192
      5 C          62.2888   86.0572   10.1132 C.2     1  UNL1        0.0283
      6 C          61.5561   86.9425    9.1490 C.3     1  UNL1        0.0470
      7 C          62.2039   86.3216   11.5872 C.2     1  UNL1        0.0707
      8 C          62.9366   85.4363   12.5513 C.3     1  UNL1        0.0812
      9 H          63.1619   84.7341    8.6358 H       1  UNL1        0.1516
     10 C          62.8517   85.7008   14.0255 C.ar    1  UNL1       -0.0138
     11 C          62.1957   84.7003   14.9303 C.ar    1  UNL1       -0.0036
     12 C          62.1108   84.9647   16.4044 C.ar    1  UNL1       -0.0003
     13 C          62.6820   86.2295   16.9736 C.ar    1  UNL1       -0.0000
     14 C          63.3380   87.2300   16.0688 C.ar    1  UNL1       -0.0003
     15 C          63.4228   86.9656   14.5947 C.ar    1  UNL1       -0.0031
     16 C          64.0788   87.9660   13.6898 C.2     1  UNL1        0.0064
     17 C          64.1229   89.4139   14.0793 C.2     1  UNL1        0.0819
     18 C          64.7789   90.4144   13.1745 C.2     1  UNL1        0.3412
     19 O          64.0589   90.9074   11.9544 O.2     1  UNL1       -0.2449
     20 O          66.1548   90.9218   13.4897 O.3     1  UNL1       -0.4527
     21 C          66.3619   92.3692   13.8245 C.3     1  UNL1        0.1366
     22 C          66.0796   92.0758   15.2681 C.3     1  UNL1        0.0437
     23 C          66.6443   92.6627   12.3808 C.3     1  UNL1        0.0437
     24 C          66.5691   93.8166   14.1592 C.3     1  UNL1        0.0437
     25 C          64.4867   83.4014   13.0055 C.2     1  UNL1        0.3387
     26 O          65.5466   83.9782   13.8965 O.2     1  UNL1       -0.2452
     27 O          64.1594   81.9394   13.0787 O.3     1  UNL1       -0.4456
     28 C          61.8641   81.2050   14.0496 C.3     1  UNL1        0.0513
     29 C          62.7485   81.4753   12.8685 C.3     1  UNL1        0.2089
     30 C          61.3864   87.4713   12.0972 C.2     1  UNL1        0.3387
     31 O          60.1133   87.2120   12.8469 O.2     1  UNL1       -0.2452
     32 O          61.8420   88.8801   11.8575 O.3     1  UNL1       -0.4456
     33 C          60.8325   89.9684   11.6416 C.3     1  UNL1        0.2089
     34 C          60.2566   90.1970   10.2756 C.3     1  UNL1        0.0513
@<TRIPOS>BOND
     1    28    29    1
     2    29    27    1
     3    27    25    1
     4    25    26    2
     5    25     1    1
     6     1     2    2
     7     2     3    1
     8     2     4    1
     9     4     5    1
    10     5     6    1
    11     5     7    2
    12     7    30    1
    13    30    31    2
    14    30    32    1
    15    32    33    1
    16    33    34    1
    17     7     8    1
    18     8    10    1
    19    10    11   ar
    20    11    12   ar
    21    12    13   ar
    22    13    14   ar
    23    14    15   ar
    24    15    16    1
    25    16    17    2
    26    17    18    1
    27    18    19    2
    28    18    20    1
    29    20    21    1
    30    21    22    1
    31    21    23    1
    32    21    24    1
    33     8     1    1
    34    15    10   ar
    35     4     9    1
