@<TRIPOS>MOLECULE
*****
 26 28 0 0 0
SMALL
GASTEIGER

@<TRIPOS>ATOM
      1 C          64.4390   91.6083   15.1233 C.2     1  UNL1        0.0412
      2 C          64.1480   90.1593   15.3798 C.2     1  UNL1       -0.0326
      3 C          64.6432   89.1143   14.4245 C.3     1  UNL1        0.0443
      4 C          64.3522   87.6653   14.6811 C.3     1  UNL1        0.1011
      5 N          63.5660   87.2614   15.8930 N.am    1  UNL1       -0.2453
      6 C          63.2750   85.8125   16.1496 C.2     1  UNL1        0.4052
      7 O          62.4888   85.4086   17.3615 O.2     1  UNL1       -0.2262
      8 C          63.0708   88.3064   16.8483 C.3     1  UNL1        0.1011
      9 C          63.3618   89.7554   16.5917 C.3     1  UNL1        0.0443
     10 C          66.0114   92.4162   12.6994 C.1     1  UNL1       -0.0405
     11 C          65.2252   92.0122   13.9113 C.1     1  UNL1       -0.0583
     12 C          67.2896   95.9893    9.1499 C.3     1  UNL1        0.0521
     13 C          67.4367   94.6067    9.7128 C.ar    1  UNL1        0.0600
     14 C          68.3700   93.6281    9.0638 C.ar    1  UNL1        0.0148
     15 C          68.5171   92.2455    9.6266 C.ar    1  UNL1        0.0034
     16 C          67.7309   91.8415   10.8385 C.ar    1  UNL1        0.0276
     17 C          66.7976   92.8201   11.4875 C.ar    1  UNL1        0.1224
     18 N          66.6505   94.2027   10.9246 N.ar    1  UNL1       -0.2414
     19 O          63.7702   84.7674   15.1943 O.3     1  UNL1       -0.4295
     20 C          62.8099   84.0835   14.2669 C.3     1  UNL1        0.2367
     21 C          63.0624   84.0888   12.7883 C.ar    1  UNL1        0.0213
     22 C          62.3669   85.0881   11.9122 C.ar    1  UNL1       -0.0007
     23 C          62.6195   85.0933   10.4336 C.ar    1  UNL1       -0.0002
     24 C          63.5676   84.0993    9.8312 C.ar    1  UNL1       -0.0000
     25 C          64.2631   83.0999   10.7073 C.ar    1  UNL1       -0.0002
     26 C          64.0105   83.0946   12.1859 C.ar    1  UNL1       -0.0007
@<TRIPOS>BOND
     1    12    13    1
     2    13    14   ar
     3    14    15   ar
     4    15    16   ar
     5    16    17   ar
     6    17    10    1
     7    10    11    3
     8    11     1    1
     9     1     2    2
    10     2     3    1
    11     3     4    1
    12     4     5    1
    13     5     6   am
    14     6     7    2
    15     6    19    1
    16    19    20    1
    17    20    21    1
    18    21    22   ar
    19    22    23   ar
    20    23    24   ar
    21    24    25   ar
    22    25    26   ar
    23     5     8    1
    24     8     9    1
    25    17    18   ar
    26    18    13   ar
    27     9     2    1
    28    26    21   ar
@<TRIPOS>MOLECULE
*****
 26 28 0 0 0
SMALL
GASTEIGER

@<TRIPOS>ATOM
      1 C          64.4720   91.6971   15.1273 C.2     1  UNL1        0.0412
      2 C          64.1638   90.2530   15.3912 C.2     1  UNL1       -0.0326
      3 C          64.6337   89.1986   14.4334 C.3     1  UNL1        0.0443
      4 C          64.3255   87.7546   14.6973 C.3     1  UNL1        0.1011
      5 N          63.5473   87.3649   15.9191 N.am    1  UNL1       -0.2453
      6 C          63.2391   85.9209   16.1830 C.2     1  UNL1        0.4052
      7 O          62.4609   85.5312   17.4047 O.2     1  UNL1       -0.2262
      8 C          63.0774   88.4193   16.8769 C.3     1  UNL1        0.1011
      9 C          63.3856   89.8634   16.6129 C.3     1  UNL1        0.0443
     10 C          66.0284   92.4764   12.6838 C.1     1  UNL1       -0.0405
     11 C          65.2502   92.0868   13.9055 C.1     1  UNL1       -0.0583
     12 C          67.3286   96.0267    9.1194 C.3     1  UNL1        0.0521
     13 C          67.4567   94.6412    9.6799 C.ar    1  UNL1        0.0600
     14 C          68.3629   93.6455    9.0186 C.ar    1  UNL1        0.0148
     15 C          68.4910   92.2600    9.5791 C.ar    1  UNL1        0.0034
     16 C          67.7128   91.8703   10.8008 C.ar    1  UNL1        0.0276
     17 C          66.8066   92.8661   11.4620 C.ar    1  UNL1        0.1224
     18 N          66.6785   94.2515   10.9015 N.ar    1  UNL1       -0.2414
     19 O          63.7090   84.8664   15.2252 O.3     1  UNL1       -0.4295
     20 C          62.9273   84.5857   13.9762 C.3     1  UNL1        0.2367
     21 C          62.8148   83.1812   13.4616 C.ar    1  UNL1        0.0213
     22 C          62.3243   82.0886   14.3648 C.ar    1  UNL1       -0.0007
     23 C          62.2118   80.6841   13.8502 C.ar    1  UNL1       -0.0002
     24 C          62.5896   80.3722   12.4325 C.ar    1  UNL1       -0.0000
     25 C          63.0800   81.4648   11.5293 C.ar    1  UNL1       -0.0002
     26 C          63.1926   82.8693   12.0439 C.ar    1  UNL1       -0.0007
@<TRIPOS>BOND
     1    12    13    1
     2    13    14   ar
     3    14    15   ar
     4    15    16   ar
     5    16    17   ar
     6    17    10    1
     7    10    11    3
     8    11     1    1
     9     1     2    2
    10     2     3    1
    11     3     4    1
    12     4     5    1
    13     5     6   am
    14     6     7    2
    15     6    19    1
    16    19    20    1
    17    20    21    1
    18    21    22   ar
    19    22    23   ar
    20    23    24   ar
    21    24    25   ar
    22    25    26   ar
    23     5     8    1
    24     8     9    1
    25    17    18   ar
    26    18    13   ar
    27     9     2    1
    28    26    21   ar
@<TRIPOS>MOLECULE
*****
 26 28 0 0 0
SMALL
GASTEIGER

@<TRIPOS>ATOM
      1 C          63.3384   88.0125   16.3736 C.2     1  UNL1        0.0412
      2 C          63.4411   86.6448   15.7665 C.2     1  UNL1       -0.0326
      3 C          64.1708   86.4525   14.4701 C.3     1  UNL1        0.0443
      4 C          64.2735   85.0848   13.8630 C.3     1  UNL1        0.1011
      5 N          63.6467   83.9092   14.5523 N.am    1  UNL1       -0.2453
      6 C          63.7495   82.5414   13.9452 C.2     1  UNL1        0.4052
      7 O          63.1226   81.3659   14.6345 O.2     1  UNL1       -0.2262
      8 C          62.9171   84.1014   15.8487 C.3     1  UNL1        0.1011
      9 C          62.8143   85.4693   16.4558 C.3     1  UNL1        0.0443
     10 C          64.5921   90.3636   14.9950 C.1     1  UNL1       -0.0405
     11 C          63.9652   89.1881   15.6843 C.1     1  UNL1       -0.0583
     12 C          65.4179   93.1331   10.6767 C.3     1  UNL1        0.0521
     13 C          65.6318   92.9239   12.1465 C.ar    1  UNL1        0.0600
     14 C          66.4725   93.8903   12.9271 C.ar    1  UNL1        0.0148
     15 C          66.6865   93.6811   14.3969 C.ar    1  UNL1        0.0034
     16 C          66.0596   92.5056   15.0862 C.ar    1  UNL1        0.0276
     17 C          65.2189   91.5393   14.3057 C.ar    1  UNL1        0.1224
     18 N          65.0050   91.7484   12.8358 N.ar    1  UNL1       -0.2414
     19 O          64.4791   82.3492   12.6488 O.3     1  UNL1       -0.4295
     20 C          63.7148   82.2909   11.3595 C.3     1  UNL1        0.2367
     21 C          63.2320   83.5570   10.7160 C.ar    1  UNL1        0.0213
     22 C          62.3100   84.4740   11.4636 C.ar    1  UNL1       -0.0007
     23 C          61.8272   85.7400   10.8201 C.ar    1  UNL1       -0.0002
     24 C          62.2664   86.0890    9.4290 C.ar    1  UNL1       -0.0000
     25 C          63.1884   85.1720    8.6813 C.ar    1  UNL1       -0.0002
     26 C          63.6712   83.9060    9.3248 C.ar    1  UNL1       -0.0007
@<TRIPOS>BOND
     1    12    13    1
     2    13    14   ar
     3    14    15   ar
     4    15    16   ar
     5    16    17   ar
     6    17    10    1
     7    10    11    3
     8    11     1    1
     9     1     2    2
    10     2     3    1
    11     3     4    1
    12     4     5    1
    13     5     6   am
    14     6     7    2
    15     6    19    1
    16    19    20    1
    17    20    21    1
    18    21    22   ar
    19    22    23   ar
    20    23    24   ar
    21    24    25   ar
    22    25    26   ar
    23     5     8    1
    24     8     9    1
    25    17    18   ar
    26    18    13   ar
    27     9     2    1
    28    26    21   ar
@<TRIPOS>MOLECULE
*****
 26 28 0 0 0
SMALL
GASTEIGER

@<TRIPOS>ATOM
      1 C          62.5463   86.3964   16.6962 C.2     1  UNL1        0.0412
      2 C          63.1767   87.6790   16.2406 C.2     1  UNL1       -0.0326
      3 C          63.8232   87.7584   14.8894 C.3     1  UNL1        0.0443
      4 C          64.4536   89.0410   14.4339 C.3     1  UNL1        0.1011
      5 N          64.4375   90.2442   15.3295 N.am    1  UNL1       -0.2453
      6 C          65.0680   91.5267   14.8740 C.2     1  UNL1        0.4052
      7 O          65.0518   92.7299   15.7696 O.2     1  UNL1       -0.2262
      8 C          63.7910   90.1648   16.6807 C.3     1  UNL1        0.1011
      9 C          63.1606   88.8821   17.1362 C.3     1  UNL1        0.0443
     10 C          62.5785   83.9901   14.9049 C.1     1  UNL1       -0.0405
     11 C          62.5623   85.1932   15.8006 C.1     1  UNL1       -0.0583
     12 C          63.8200   81.7689   10.3745 C.3     1  UNL1        0.0521
     13 C          63.2153   81.6763   11.7441 C.ar    1  UNL1        0.0600
     14 C          62.6267   80.3806   12.2181 C.ar    1  UNL1        0.0148
     15 C          62.0221   80.2880   13.5877 C.ar    1  UNL1        0.0034
     16 C          62.0060   81.4912   14.4833 C.ar    1  UNL1        0.0276
     17 C          62.5945   82.7869   14.0093 C.ar    1  UNL1        0.1224
     18 N          63.1992   82.8794   12.6397 N.ar    1  UNL1       -0.2414
     19 O          65.7145   91.6062   13.5228 O.3     1  UNL1       -0.4295
     20 C          65.7522   92.9116   12.7849 C.3     1  UNL1        0.2367
     21 C          66.5439   93.0337   11.5168 C.ar    1  UNL1        0.0213
     22 C          67.5810   92.0044   11.1780 C.ar    1  UNL1       -0.0007
     23 C          68.3727   92.1266    9.9098 C.ar    1  UNL1       -0.0002
     24 C          68.1273   93.2780    8.9804 C.ar    1  UNL1       -0.0000
     25 C          67.0901   94.3074    9.3191 C.ar    1  UNL1       -0.0002
     26 C          66.2984   94.1853   10.5873 C.ar    1  UNL1       -0.0007
@<TRIPOS>BOND
     1    12    13    1
     2    13    14   ar
     3    14    15   ar
     4    15    16   ar
     5    16    17   ar
     6    17    10    1
     7    10    11    3
     8    11     1    1
     9     1     2    2
    10     2     3    1
    11     3     4    1
    12     4     5    1
    13     5     6   am
    14     6     7    2
    15     6    19    1
    16    19    20    1
    17    20    21    1
    18    21    22   ar
    19    22    23   ar
    20    23    24   ar
    21    24    25   ar
    22    25    26   ar
    23     5     8    1
    24     8     9    1
    25    17    18   ar
    26    18    13   ar
    27     9     2    1
    28    26    21   ar
@<TRIPOS>MOLECULE
*****
 26 28 0 0 0
SMALL
GASTEIGER

@<TRIPOS>ATOM
      1 C          63.1608   88.1396   16.4421 C.2     1  UNL1        0.0412
      2 C          63.8612   89.2948   15.7903 C.2     1  UNL1       -0.0326
      3 C          64.5740   89.1000   14.4850 C.3     1  UNL1        0.0443
      4 C          65.2743   90.2552   13.8331 C.3     1  UNL1        0.1011
      5 N          65.2619   91.6053   14.4867 N.am    1  UNL1       -0.2453
      6 C          65.9623   92.7605   13.8348 C.2     1  UNL1        0.4052
      7 O          65.9499   94.1106   14.4884 O.2     1  UNL1       -0.2262
      8 C          64.5491   91.8002   15.7920 C.3     1  UNL1        0.1011
      9 C          63.8487   90.6449   16.4438 C.3     1  UNL1        0.0443
     10 C          63.1856   85.4394   15.1352 C.1     1  UNL1       -0.0405
     11 C          63.1732   86.7895   15.7886 C.1     1  UNL1       -0.0583
     12 C          60.8987   80.8658   14.2116 C.3     1  UNL1        0.0521
     13 C          62.0545   81.8025   14.0199 C.ar    1  UNL1        0.0600
     14 C          63.2227   81.3891   13.1747 C.ar    1  UNL1        0.0148
     15 C          64.3785   82.3257   12.9830 C.ar    1  UNL1        0.0034
     16 C          64.3662   83.6758   13.6365 C.ar    1  UNL1        0.0276
     17 C          63.1980   84.0892   14.4816 C.ar    1  UNL1        0.1224
     18 N          62.0422   83.1526   14.6734 N.ar    1  UNL1       -0.2414
     19 O          66.6751   92.5657   12.5295 O.3     1  UNL1       -0.4295
     20 C          66.0228   92.9921   11.2478 C.3     1  UNL1        0.2367
     21 C          66.4484   94.2643   10.5768 C.ar    1  UNL1        0.0213
     22 C          67.1065   94.2179    9.2297 C.ar    1  UNL1       -0.0007
     23 C          67.5320   95.4902    8.5586 C.ar    1  UNL1       -0.0002
     24 C          67.2994   96.8088    9.2346 C.ar    1  UNL1       -0.0000
     25 C          66.6412   96.8553   10.5818 C.ar    1  UNL1       -0.0002
     26 C          66.2157   95.5830   11.2528 C.ar    1  UNL1       -0.0007
@<TRIPOS>BOND
     1    12    13    1
     2    13    14   ar
     3    14    15   ar
     4    15    16   ar
     5    16    17   ar
     6    17    10    1
     7    10    11    3
     8    11     1    1
     9     1     2    2
    10     2     3    1
    11     3     4    1
    12     4     5    1
    13     5     6   am
    14     6     7    2
    15     6    19    1
    16    19    20    1
    17    20    21    1
    18    21    22   ar
    19    22    23   ar
    20    23    24   ar
    21    24    25   ar
    22    25    26   ar
    23     5     8    1
    24     8     9    1
    25    17    18   ar
    26    18    13   ar
    27     9     2    1
    28    26    21   ar
@<TRIPOS>MOLECULE
*****
 26 28 0 0 0
SMALL
GASTEIGER

@<TRIPOS>ATOM
      1 C          60.8596   87.2505    8.9684 C.2     1  UNL1        0.0412
      2 C          61.6308   87.7621   10.1489 C.2     1  UNL1       -0.0326
      3 C          61.7876   89.2389   10.3594 C.3     1  UNL1        0.0443
      4 C          62.5588   89.7505   11.5398 C.3     1  UNL1        0.1011
      5 N          63.1733   88.7852   12.5098 N.am    1  UNL1       -0.2453
      6 C          63.9445   89.2968   13.6903 C.2     1  UNL1        0.4052
      7 O          64.5589   88.3316   14.6602 O.2     1  UNL1       -0.2262
      8 C          63.0165   87.3084   12.2993 C.3     1  UNL1        0.1011
      9 C          62.2452   86.7968   11.1188 C.3     1  UNL1        0.0443
     10 C          59.6308   89.1809    7.0285 C.1     1  UNL1       -0.0405
     11 C          60.2452   88.2157    7.9985 C.1     1  UNL1       -0.0583
     12 C          60.1576   92.8044    3.3416 C.3     1  UNL1        0.0521
     13 C          59.2798   91.9579    4.2151 C.ar    1  UNL1        0.0600
     14 C          57.7876   92.0767    4.1186 C.ar    1  UNL1        0.0148
     15 C          56.9099   91.2302    4.9921 C.ar    1  UNL1        0.0034
     16 C          57.5242   90.2649    5.9620 C.ar    1  UNL1        0.0276
     17 C          59.0164   90.1462    6.0585 C.ar    1  UNL1        0.1224
     18 N          59.8941   90.9927    5.1850 N.ar    1  UNL1       -0.2414
     19 O          64.1013   90.7737   13.9008 O.3     1  UNL1       -0.4295
     20 C          65.2590   91.5005   13.2834 C.3     1  UNL1        0.2367
     21 C          66.4110   91.9394   14.1380 C.ar    1  UNL1        0.0213
     22 C          66.1640   92.4407   15.5299 C.ar    1  UNL1       -0.0007
     23 C          67.3160   92.8795   16.3845 C.ar    1  UNL1       -0.0002
     24 C          68.7150   92.8170   15.8472 C.ar    1  UNL1       -0.0000
     25 C          68.9621   92.3157   14.4551 C.ar    1  UNL1       -0.0002
     26 C          67.8101   91.8768   13.6005 C.ar    1  UNL1       -0.0007
@<TRIPOS>BOND
     1    12    13    1
     2    13    14   ar
     3    14    15   ar
     4    15    16   ar
     5    16    17   ar
     6    17    10    1
     7    10    11    3
     8    11     1    1
     9     1     2    2
    10     2     3    1
    11     3     4    1
    12     4     5    1
    13     5     6   am
    14     6     7    2
    15     6    19    1
    16    19    20    1
    17    20    21    1
    18    21    22   ar
    19    22    23   ar
    20    23    24   ar
    21    24    25   ar
    22    25    26   ar
    23     5     8    1
    24     8     9    1
    25    17    18   ar
    26    18    13   ar
    27     9     2    1
    28    26    21   ar
@<TRIPOS>MOLECULE
*****
 26 28 0 0 0
SMALL
GASTEIGER

@<TRIPOS>ATOM
      1 C          60.9583   87.9569    9.4012 C.2     1  UNL1        0.0412
      2 C          61.8304   88.6237   10.4233 C.2     1  UNL1       -0.0326
      3 C          62.0779   90.1013   10.3489 C.3     1  UNL1        0.0443
      4 C          62.9500   90.7681   11.3710 C.3     1  UNL1        0.1011
      5 N          63.5745   89.9573   12.4677 N.am    1  UNL1       -0.2453
      6 C          64.4466   90.6241   13.4898 C.2     1  UNL1        0.4052
      7 O          65.0711   89.8134   14.5864 O.2     1  UNL1       -0.2262
      8 C          63.3270   88.4798   12.5421 C.3     1  UNL1        0.1011
      9 C          62.4549   87.8130   11.5199 C.3     1  UNL1        0.0443
     10 C          59.7092   89.5783    7.2078 C.1     1  UNL1       -0.0405
     11 C          60.3337   88.7677    8.3045 C.1     1  UNL1       -0.0583
     12 C          60.1894   92.8262    3.1804 C.3     1  UNL1        0.0521
     13 C          59.3247   92.0130    4.0974 C.ar    1  UNL1        0.0600
     14 C          57.8355   92.0105    3.9179 C.ar    1  UNL1        0.0148
     15 C          56.9709   91.1973    4.8350 C.ar    1  UNL1        0.0034
     16 C          57.5954   90.3866    5.9316 C.ar    1  UNL1        0.0276
     17 C          59.0846   90.3891    6.1112 C.ar    1  UNL1        0.1224
     18 N          59.9492   91.2023    5.1941 N.ar    1  UNL1       -0.2414
     19 O          64.6941   92.1017   13.4154 O.3     1  UNL1       -0.4295
     20 C          66.0911   92.6204   13.2443 C.3     1  UNL1        0.2367
     21 C          66.5135   93.2203   11.9360 C.ar    1  UNL1        0.0213
     22 C          67.2878   92.3980   10.9490 C.ar    1  UNL1       -0.0007
     23 C          67.7102   92.9978    9.6407 C.ar    1  UNL1       -0.0002
     24 C          67.3582   94.4201    9.3193 C.ar    1  UNL1       -0.0000
     25 C          66.5838   95.2425   10.3062 C.ar    1  UNL1       -0.0002
     26 C          66.1614   94.6426   11.6146 C.ar    1  UNL1       -0.0007
@<TRIPOS>BOND
     1    12    13    1
     2    13    14   ar
     3    14    15   ar
     4    15    16   ar
     5    16    17   ar
     6    17    10    1
     7    10    11    3
     8    11     1    1
     9     1     2    2
    10     2     3    1
    11     3     4    1
    12     4     5    1
    13     5     6   am
    14     6     7    2
    15     6    19    1
    16    19    20    1
    17    20    21    1
    18    21    22   ar
    19    22    23   ar
    20    23    24   ar
    21    24    25   ar
    22    25    26   ar
    23     5     8    1
    24     8     9    1
    25    17    18   ar
    26    18    13   ar
    27     9     2    1
    28    26    21   ar
@<TRIPOS>MOLECULE
*****
 26 28 0 0 0
SMALL
GASTEIGER

@<TRIPOS>ATOM
      1 C          63.0976   87.3956   12.6034 C.2     1  UNL1        0.0412
      2 C          62.2756   87.7012   11.3865 C.2     1  UNL1       -0.0326
      3 C          62.1500   89.1153   10.9020 C.3     1  UNL1        0.0443
      4 C          61.3281   89.4210    9.6851 C.3     1  UNL1        0.1011
      5 N          60.6316   88.3126    8.9526 N.am    1  UNL1       -0.2453
      6 C          59.8096   88.6183    7.7358 C.2     1  UNL1        0.4052
      7 O          59.1131   87.5099    7.0033 O.2     1  UNL1       -0.2262
      8 C          60.7571   86.8986    9.4371 C.3     1  UNL1        0.1011
      9 C          61.5791   86.5929   10.6541 C.3     1  UNL1        0.0443
     10 C          64.4905   89.6123   14.0683 C.1     1  UNL1       -0.0405
     11 C          63.7941   88.5039   13.3358 C.1     1  UNL1       -0.0583
     12 C          68.7130   92.5415   14.8361 C.3     1  UNL1        0.0521
     13 C          67.2983   92.1853   15.1847 C.ar    1  UNL1        0.0600
     14 C          66.5800   92.9373   16.2656 C.ar    1  UNL1        0.0148
     15 C          65.1652   92.5810   16.6141 C.ar    1  UNL1        0.0034
     16 C          64.4687   91.4727   15.8817 C.ar    1  UNL1        0.0276
     17 C          65.1870   90.7207   14.8008 C.ar    1  UNL1        0.1224
     18 N          66.6018   91.0769   14.4523 N.ar    1  UNL1       -0.2414
     19 O          59.6840   90.0323    7.2513 O.3     1  UNL1       -0.4295
     20 C          59.0207   90.3187    5.9368 C.3     1  UNL1        0.2367
     21 C          59.7404   91.1190    4.8921 C.ar    1  UNL1        0.0213
     22 C          61.1972   90.8745    4.6315 C.ar    1  UNL1       -0.0007
     23 C          61.9169   91.6748    3.5868 C.ar    1  UNL1       -0.0002
     24 C          61.1799   92.7197    2.8026 C.ar    1  UNL1       -0.0000
     25 C          59.7230   92.9643    3.0632 C.ar    1  UNL1       -0.0002
     26 C          59.0033   92.1640    4.1079 C.ar    1  UNL1       -0.0007
@<TRIPOS>BOND
     1    12    13    1
     2    13    14   ar
     3    14    15   ar
     4    15    16   ar
     5    16    17   ar
     6    17    10    1
     7    10    11    3
     8    11     1    1
     9     1     2    2
    10     2     3    1
    11     3     4    1
    12     4     5    1
    13     5     6   am
    14     6     7    2
    15     6    19    1
    16    19    20    1
    17    20    21    1
    18    21    22   ar
    19    22    23   ar
    20    23    24   ar
    21    24    25   ar
    22    25    26   ar
    23     5     8    1
    24     8     9    1
    25    17    18   ar
    26    18    13   ar
    27     9     2    1
    28    26    21   ar
@<TRIPOS>MOLECULE
*****
 26 28 0 0 0
SMALL
GASTEIGER

@<TRIPOS>ATOM
      1 C          60.3465   86.6371    8.7133 C.2     1  UNL1        0.0412
      2 C          61.2103   86.9019    9.9107 C.2     1  UNL1       -0.0326
      3 C          61.7026   88.2915   10.1878 C.3     1  UNL1        0.0443
      4 C          62.5665   88.5562   11.3851 C.3     1  UNL1        0.1011
      5 N          62.9380   87.4315   12.3054 N.am    1  UNL1       -0.2453
      6 C          63.8018   87.6962   13.5027 C.2     1  UNL1        0.4052
      7 O          64.1733   86.5715   14.4229 O.2     1  UNL1       -0.2262
      8 C          62.4457   86.0419   12.0283 C.3     1  UNL1        0.1011
      9 C          61.5818   85.7772   10.8309 C.3     1  UNL1        0.0443
     10 C          59.6034   88.8867    6.8728 C.1     1  UNL1       -0.0405
     11 C          59.9749   87.7619    7.7930 C.1     1  UNL1       -0.0583
     12 C          60.9776   92.5066    3.4076 C.3     1  UNL1        0.0521
     13 C          59.9190   91.8214    4.2199 C.ar    1  UNL1        0.0600
     14 C          58.4890   92.2609    4.1119 C.ar    1  UNL1        0.0148
     15 C          57.4304   91.5757    4.9242 C.ar    1  UNL1        0.0034
     16 C          57.8018   90.4510    5.8445 C.ar    1  UNL1        0.0276
     17 C          59.2319   90.0115    5.9525 C.ar    1  UNL1        0.1224
     18 N          60.2905   90.6967    5.1402 N.ar    1  UNL1       -0.2414
     19 O          64.2942   89.0858   13.7798 O.3     1  UNL1       -0.4295
     20 C          63.6610   90.2574   13.0896 C.3     1  UNL1        0.2367
     21 C          64.5156   91.3821   12.5849 C.ar    1  UNL1        0.0213
     22 C          65.4664   92.0768   13.5140 C.ar    1  UNL1       -0.0007
     23 C          66.3210   93.2016   13.0093 C.ar    1  UNL1       -0.0002
     24 C          66.2247   93.6315   11.5755 C.ar    1  UNL1       -0.0000
     25 C          65.2739   92.9368   10.6463 C.ar    1  UNL1       -0.0002
     26 C          64.4193   91.8121   11.1510 C.ar    1  UNL1       -0.0007
@<TRIPOS>BOND
     1    12    13    1
     2    13    14   ar
     3    14    15   ar
     4    15    16   ar
     5    16    17   ar
     6    17    10    1
     7    10    11    3
     8    11     1    1
     9     1     2    2
    10     2     3    1
    11     3     4    1
    12     4     5    1
    13     5     6   am
    14     6     7    2
    15     6    19    1
    16    19    20    1
    17    20    21    1
    18    21    22   ar
    19    22    23   ar
    20    23    24   ar
    21    24    25   ar
    22    25    26   ar
    23     5     8    1
    24     8     9    1
    25    17    18   ar
    26    18    13   ar
    27     9     2    1
    28    26    21   ar
