@<TRIPOS>MOLECULE
*****
 33 36 0 0 0
SMALL
GASTEIGER

@<TRIPOS>ATOM
      1 O          64.7923   83.1793   15.4828 O.3     1  UNL1       -0.3755
      2 C          64.1015   83.9585   14.4032 C.3     1  UNL1        0.1932
      3 H          64.2557   82.4061   15.7174 H       1  UNL1        0.2110
      4 C          63.6547   82.6769   13.7643 C.ar    1  UNL1        0.0368
      5 C          62.6672   81.7931   14.4669 C.ar    1  UNL1        0.0028
      6 C          62.2204   80.5116   13.8281 C.ar    1  UNL1        0.0295
      7 C          62.7611   80.1139   12.4867 C.ar    1  UNL1        0.1424
      8 F          62.3143   78.8324   11.8479 F       1  UNL1       -0.2041
      9 C          63.7486   80.9978   11.7841 C.ar    1  UNL1        0.0590
     10 C          64.1954   82.2792   12.4229 C.ar    1  UNL1        0.1408
     11 F          65.1829   83.1631   11.7203 F       1  UNL1       -0.2043
     12 C          63.4107   84.7376   13.3235 C.3     1  UNL1        0.3254
     13 F          62.0318   84.1488   13.2766 F       1  UNL1       -0.1949
     14 F          64.6594   85.5387   13.1026 F       1  UNL1       -0.1949
     15 C          62.7198   85.5167   12.2438 C.ar    1  UNL1        0.1218
     16 C          62.0124   84.7962   11.1346 C.ar    1  UNL1        0.0202
     17 C          61.3215   85.5754   10.0549 C.ar    1  UNL1        0.0029
     18 C          61.3380   87.0750   10.0845 C.ar    1  UNL1        0.0192
     19 C          62.0454   87.7955   11.1938 C.ar    1  UNL1        0.0986
     20 N          62.7363   87.0163   12.2735 N.ar    1  UNL1       -0.2427
     21 C          60.6471   87.8541    9.0049 C.ar    1  UNL1        0.0016
     22 C          60.7156   89.3525    9.0005 C.ar    1  UNL1        0.0024
     23 C          60.0247   90.1318    7.9209 C.ar    1  UNL1        0.0296
     24 C          59.2654   89.4125    6.8456 C.ar    1  UNL1        0.1401
     25 F          58.5746   90.1916    5.7660 F       1  UNL1       -0.2042
     26 C          59.1970   87.9140    6.8500 C.ar    1  UNL1        0.0296
     27 C          59.8879   87.1349    7.9296 C.ar    1  UNL1        0.0024
     28 C          64.5483   85.2399   15.0420 C.3     1  UNL1        0.1661
     29 N          63.6231   85.9830   15.9595 N.ar    1  UNL1       -0.2271
     30 C          62.5307   85.3773   16.7900 C.ar    1  UNL1        0.1973
     31 N          61.8603   86.4822   17.5514 N.ar    1  UNL1       -0.2007
     32 C          62.5383   87.7709   17.1914 C.ar    1  UNL1        0.2210
     33 N          63.6278   87.4624   16.2076 N.ar    1  UNL1       -0.1451
@<TRIPOS>BOND
     1     1     2    1
     2     2    28    1
     3    28    29    1
     4    29    30   ar
     5    30    31   ar
     6    31    32   ar
     7    32    33   ar
     8     2     4    1
     9     4     5   ar
    10     5     6   ar
    11     6     7   ar
    12     7     8    1
    13     7     9   ar
    14     9    10   ar
    15    10    11    1
    16     2    12    1
    17    12    13    1
    18    12    14    1
    19    12    15    1
    20    15    16   ar
    21    16    17   ar
    22    17    18   ar
    23    18    21    1
    24    21    22   ar
    25    22    23   ar
    26    23    24   ar
    27    24    25    1
    28    24    26   ar
    29    26    27   ar
    30    18    19   ar
    31    19    20   ar
    32    33    29   ar
    33    10     4   ar
    34    20    15   ar
    35    27    21   ar
    36     1     3    1
@<TRIPOS>MOLECULE
*****
 33 36 0 0 0
SMALL
GASTEIGER

@<TRIPOS>ATOM
      1 O          60.3688   85.9765    8.9564 O.3     1  UNL1       -0.3755
      2 C          61.2240   86.8789    9.7955 C.3     1  UNL1        0.1932
      3 H          60.9278   85.3141    8.5210 H       1  UNL1        0.2110
      4 C          62.0750   85.7075   10.1878 C.ar    1  UNL1        0.0368
      5 C          61.9841   85.1459   11.5758 C.ar    1  UNL1        0.0028
      6 C          62.8349   83.9745   11.9681 C.ar    1  UNL1        0.0295
      7 C          63.7766   83.3648   10.9724 C.ar    1  UNL1        0.1424
      8 F          64.6275   82.1933   11.3647 F       1  UNL1       -0.2041
      9 C          63.8675   83.9263    9.5845 C.ar    1  UNL1        0.0590
     10 C          63.0166   85.0977    9.1922 C.ar    1  UNL1        0.1408
     11 F          63.1075   85.6592    7.8042 F       1  UNL1       -0.2043
     12 C          62.0793   87.7812   10.6347 C.3     1  UNL1        0.3254
     13 F          61.7718   87.3663   12.0430 F       1  UNL1       -0.1949
     14 F          62.6095   88.4339    9.3925 F       1  UNL1       -0.1949
     15 C          62.9346   88.6836   11.4739 C.ar    1  UNL1        0.1218
     16 C          63.2725   90.0619   10.9881 C.ar    1  UNL1        0.0202
     17 C          64.1278   90.9643   11.8274 C.ar    1  UNL1        0.0029
     18 C          64.6452   90.4883   13.1524 C.ar    1  UNL1        0.0192
     19 C          64.3073   89.1098   13.6381 C.ar    1  UNL1        0.0986
     20 N          63.4521   88.2076   12.7989 N.ar    1  UNL1       -0.2427
     21 C          65.5005   91.3905   13.9916 C.ar    1  UNL1        0.0016
     22 C          65.1534   91.6269   15.4316 C.ar    1  UNL1        0.0024
     23 C          66.0087   92.5292   16.2709 C.ar    1  UNL1        0.0296
     24 C          67.2110   93.1952   15.6701 C.ar    1  UNL1        0.1401
     25 F          68.0663   94.0974   16.5094 F       1  UNL1       -0.2042
     26 C          67.5581   92.9587   14.2301 C.ar    1  UNL1        0.0296
     27 C          66.7028   92.0565   13.3908 C.ar    1  UNL1        0.0024
     28 C          60.3732   88.0502    9.4032 C.3     1  UNL1        0.1661
     29 N          59.8300   88.9690   10.4571 N.ar    1  UNL1       -0.2271
     30 C          59.7750   90.4660   10.3786 C.ar    1  UNL1        0.1973
     31 N          59.1575   90.9744   11.6475 N.ar    1  UNL1       -0.2007
     32 C          58.8308   89.7917   12.5103 C.ar    1  UNL1        0.2210
     33 N          59.2464   88.5523   11.7746 N.ar    1  UNL1       -0.1451
@<TRIPOS>BOND
     1     1     2    1
     2     2    28    1
     3    28    29    1
     4    29    30   ar
     5    30    31   ar
     6    31    32   ar
     7    32    33   ar
     8     2     4    1
     9     4     5   ar
    10     5     6   ar
    11     6     7   ar
    12     7     8    1
    13     7     9   ar
    14     9    10   ar
    15    10    11    1
    16     2    12    1
    17    12    13    1
    18    12    14    1
    19    12    15    1
    20    15    16   ar
    21    16    17   ar
    22    17    18   ar
    23    18    21    1
    24    21    22   ar
    25    22    23   ar
    26    23    24   ar
    27    24    25    1
    28    24    26   ar
    29    26    27   ar
    30    18    19   ar
    31    19    20   ar
    32    33    29   ar
    33    10     4   ar
    34    20    15   ar
    35    27    21   ar
    36     1     3    1
@<TRIPOS>MOLECULE
*****
 33 36 0 0 0
SMALL
GASTEIGER

@<TRIPOS>ATOM
      1 O          59.9803   86.1968    9.3346 O.3     1  UNL1       -0.3755
      2 C          60.9047   87.0766   10.1229 C.3     1  UNL1        0.1932
      3 H          60.5013   85.5876    8.7884 H       1  UNL1        0.2110
      4 C          61.8357   85.9179   10.3245 C.ar    1  UNL1        0.0368
      5 C          62.0167   85.3305   11.6928 C.ar    1  UNL1        0.0028
      6 C          62.9477   84.1718   11.8944 C.ar    1  UNL1        0.0295
      7 C          63.6976   83.6005   10.7277 C.ar    1  UNL1        0.1424
      8 F          64.6286   82.4417   10.9293 F       1  UNL1       -0.2041
      9 C          63.5165   84.1878    9.3594 C.ar    1  UNL1        0.0590
     10 C          62.5856   85.3465    9.1578 C.ar    1  UNL1        0.1408
     11 F          62.4045   85.9339    7.7895 F       1  UNL1       -0.2043
     12 C          61.8290   87.9565   10.9111 C.3     1  UNL1        0.3254
     13 F          63.0698   88.0245   10.0709 F       1  UNL1       -0.1949
     14 F          60.7808   88.1058   11.9736 F       1  UNL1       -0.1949
     15 C          62.7534   88.8364   11.6994 C.ar    1  UNL1        0.1218
     16 C          63.0469   90.2296   11.2273 C.ar    1  UNL1        0.0202
     17 C          63.9713   91.1095   12.0156 C.ar    1  UNL1        0.0029
     18 C          64.6023   90.5961   13.2759 C.ar    1  UNL1        0.0192
     19 C          64.3088   89.2028   13.7479 C.ar    1  UNL1        0.0986
     20 N          63.3844   88.3230   12.9597 N.ar    1  UNL1       -0.2427
     21 C          65.5267   91.4759   14.0642 C.ar    1  UNL1        0.0016
     22 C          66.7477   92.0548   13.4132 C.ar    1  UNL1        0.0024
     23 C          67.6722   92.9347   14.2014 C.ar    1  UNL1        0.0296
     24 C          67.3755   93.2356   15.6407 C.ar    1  UNL1        0.1401
     25 F          68.2999   94.1154   16.4289 F       1  UNL1       -0.2042
     26 C          66.1544   92.6566   16.2917 C.ar    1  UNL1        0.0296
     27 C          65.2300   91.7768   15.5034 C.ar    1  UNL1        0.0024
     28 C          59.9737   88.2353    9.9213 C.3     1  UNL1        0.1661
     29 N          59.7192   88.7614    8.5398 N.ar    1  UNL1       -0.2271
     30 C          60.2021   90.0719    7.9926 C.ar    1  UNL1        0.1973
     31 N          59.7185   90.1898    6.5776 N.ar    1  UNL1       -0.2007
     32 C          58.9367   88.9522    6.2503 C.ar    1  UNL1        0.2210
     33 N          58.9372   88.0694    7.4630 N.ar    1  UNL1       -0.1451
@<TRIPOS>BOND
     1     1     2    1
     2     2    28    1
     3    28    29    1
     4    29    30   ar
     5    30    31   ar
     6    31    32   ar
     7    32    33   ar
     8     2     4    1
     9     4     5   ar
    10     5     6   ar
    11     6     7   ar
    12     7     8    1
    13     7     9   ar
    14     9    10   ar
    15    10    11    1
    16     2    12    1
    17    12    13    1
    18    12    14    1
    19    12    15    1
    20    15    16   ar
    21    16    17   ar
    22    17    18   ar
    23    18    21    1
    24    21    22   ar
    25    22    23   ar
    26    23    24   ar
    27    24    25    1
    28    24    26   ar
    29    26    27   ar
    30    18    19   ar
    31    19    20   ar
    32    33    29   ar
    33    10     4   ar
    34    20    15   ar
    35    27    21   ar
    36     1     3    1
@<TRIPOS>MOLECULE
*****
 33 36 0 0 0
SMALL
GASTEIGER

@<TRIPOS>ATOM
      1 O          64.3109   91.9014   13.4418 O.3     1  UNL1       -0.3755
      2 C          64.1138   90.4156   13.4993 C.3     1  UNL1        0.1932
      3 H          64.2530   92.1998   12.5206 H       1  UNL1        0.2110
      4 C          63.0740   90.5118   12.4223 C.ar    1  UNL1        0.0368
      5 C          61.6674   90.0688   12.6961 C.ar    1  UNL1        0.0028
      6 C          60.6276   90.1651   11.6193 C.ar    1  UNL1        0.0295
      7 C          60.9946   90.7044   10.2686 C.ar    1  UNL1        0.1424
      8 F          59.9549   90.8007    9.1916 F       1  UNL1       -0.2041
      9 C          62.4013   91.1474    9.9947 C.ar    1  UNL1        0.0590
     10 C          63.4410   91.0511   11.0716 C.ar    1  UNL1        0.1408
     11 F          64.8477   91.4941   10.7978 F       1  UNL1       -0.2043
     12 C          63.9167   88.9297   13.5568 C.3     1  UNL1        0.3254
     13 F          63.7963   88.5236   12.1177 F       1  UNL1       -0.1949
     14 F          63.9916   88.9777   15.0541 F       1  UNL1       -0.1949
     15 C          63.7196   87.4438   13.6142 C.ar    1  UNL1        0.1218
     16 C          64.2649   86.6590   14.7704 C.ar    1  UNL1        0.0202
     17 C          64.0678   85.1731   14.8278 C.ar    1  UNL1        0.0029
     18 C          63.3254   84.4720   13.7290 C.ar    1  UNL1        0.0192
     19 C          62.7801   85.2568   12.5728 C.ar    1  UNL1        0.0986
     20 N          62.9772   86.7427   12.5154 N.ar    1  UNL1       -0.2427
     21 C          63.1283   82.9861   13.7864 C.ar    1  UNL1        0.0016
     22 C          61.8093   82.4209   14.2231 C.ar    1  UNL1        0.0024
     23 C          61.6121   80.9350   14.2806 C.ar    1  UNL1        0.0296
     24 C          62.7340   80.0143   13.9012 C.ar    1  UNL1        0.1401
     25 F          62.5369   78.5285   13.9586 F       1  UNL1       -0.2042
     26 C          64.0530   80.5797   13.4645 C.ar    1  UNL1        0.0296
     27 C          64.2501   82.0655   13.4071 C.ar    1  UNL1        0.0024
     28 C          65.1535   90.3193   14.5762 C.3     1  UNL1        0.1661
     29 N          66.1910   91.3936   14.7151 N.ar    1  UNL1       -0.2271
     30 C          67.3809   91.5909   13.8233 C.ar    1  UNL1        0.1973
     31 N          68.1461   92.7785   14.3273 N.ar    1  UNL1       -0.2007
     32 C          67.4292   93.3152   15.5307 C.ar    1  UNL1        0.2210
     33 N          66.2209   92.4593   15.7703 N.ar    1  UNL1       -0.1451
@<TRIPOS>BOND
     1     1     2    1
     2     2    28    1
     3    28    29    1
     4    29    30   ar
     5    30    31   ar
     6    31    32   ar
     7    32    33   ar
     8     2     4    1
     9     4     5   ar
    10     5     6   ar
    11     6     7   ar
    12     7     8    1
    13     7     9   ar
    14     9    10   ar
    15    10    11    1
    16     2    12    1
    17    12    13    1
    18    12    14    1
    19    12    15    1
    20    15    16   ar
    21    16    17   ar
    22    17    18   ar
    23    18    21    1
    24    21    22   ar
    25    22    23   ar
    26    23    24   ar
    27    24    25    1
    28    24    26   ar
    29    26    27   ar
    30    18    19   ar
    31    19    20   ar
    32    33    29   ar
    33    10     4   ar
    34    20    15   ar
    35    27    21   ar
    36     1     3    1
@<TRIPOS>MOLECULE
*****
 33 36 0 0 0
SMALL
GASTEIGER

@<TRIPOS>ATOM
      1 O          64.9268   83.3479   15.2331 O.3     1  UNL1       -0.3755
      2 C          64.1910   84.0911   14.1578 C.3     1  UNL1        0.1932
      3 H          65.4110   83.9786   15.7887 H       1  UNL1        0.2110
      4 C          63.8772   85.1885   15.1311 C.ar    1  UNL1        0.0368
      5 C          64.5051   86.5406   14.9650 C.ar    1  UNL1        0.0028
      6 C          64.1913   87.6379   15.9382 C.ar    1  UNL1        0.0295
      7 C          63.2495   87.3833   17.0775 C.ar    1  UNL1        0.1424
      8 F          62.9357   88.4807   18.0508 F       1  UNL1       -0.2041
      9 C          62.6216   86.0312   17.2437 C.ar    1  UNL1        0.0590
     10 C          62.9354   84.9338   16.2705 C.ar    1  UNL1        0.1408
     11 F          62.3075   83.5817   16.4366 F       1  UNL1       -0.2043
     12 C          63.4552   84.8342   13.0825 C.3     1  UNL1        0.3254
     13 F          62.1013   85.0866   13.6771 F       1  UNL1       -0.1949
     14 F          64.6670   84.7595   12.2017 F       1  UNL1       -0.1949
     15 C          62.7194   85.5774   12.0072 C.ar    1  UNL1        0.1218
     16 C          62.0889   84.8255   10.8728 C.ar    1  UNL1        0.0202
     17 C          61.3530   85.5687    9.7974 C.ar    1  UNL1        0.0029
     18 C          61.2477   87.0638    9.8567 C.ar    1  UNL1        0.0192
     19 C          61.8782   87.8157   10.9912 C.ar    1  UNL1        0.0986
     20 N          62.6141   87.0725   12.0664 N.ar    1  UNL1       -0.2427
     21 C          60.5119   87.8070    8.7814 C.ar    1  UNL1        0.0016
     22 C          59.7650   87.0504    7.7233 C.ar    1  UNL1        0.0024
     23 C          59.0291   87.7936    6.6480 C.ar    1  UNL1        0.0296
     24 C          59.0402   89.2934    6.6309 C.ar    1  UNL1        0.1401
     25 F          58.3043   90.0366    5.5557 F       1  UNL1       -0.2042
     26 C          59.7871   90.0501    7.6890 C.ar    1  UNL1        0.0296
     27 C          60.5229   89.3069    8.7643 C.ar    1  UNL1        0.0024
     28 C          64.5049   82.9937   13.1846 C.3     1  UNL1        0.1661
     29 N          63.6526   81.7599   13.1449 N.ar    1  UNL1       -0.2271
     30 C          63.1281   81.0901   11.9096 C.ar    1  UNL1        0.1973
     31 N          62.3265   79.8956   12.3347 N.ar    1  UNL1       -0.2007
     32 C          62.3557   79.8272   13.8329 C.ar    1  UNL1        0.2210
     33 N          63.1753   80.9795   14.3336 N.ar    1  UNL1       -0.1451
@<TRIPOS>BOND
     1     1     2    1
     2     2    28    1
     3    28    29    1
     4    29    30   ar
     5    30    31   ar
     6    31    32   ar
     7    32    33   ar
     8     2     4    1
     9     4     5   ar
    10     5     6   ar
    11     6     7   ar
    12     7     8    1
    13     7     9   ar
    14     9    10   ar
    15    10    11    1
    16     2    12    1
    17    12    13    1
    18    12    14    1
    19    12    15    1
    20    15    16   ar
    21    16    17   ar
    22    17    18   ar
    23    18    21    1
    24    21    22   ar
    25    22    23   ar
    26    23    24   ar
    27    24    25    1
    28    24    26   ar
    29    26    27   ar
    30    18    19   ar
    31    19    20   ar
    32    33    29   ar
    33    10     4   ar
    34    20    15   ar
    35    27    21   ar
    36     1     3    1
@<TRIPOS>MOLECULE
*****
 33 36 0 0 0
SMALL
GASTEIGER

@<TRIPOS>ATOM
      1 O          59.8324   86.7679    8.4365 O.3     1  UNL1       -0.3755
      2 C          60.7588   87.5985    9.2742 C.3     1  UNL1        0.1932
      3 H          60.3510   86.1579    7.8889 H       1  UNL1        0.2110
      4 C          61.6491   86.4073    9.4706 C.ar    1  UNL1        0.0368
      5 C          62.4044   85.8356    8.3076 C.ar    1  UNL1        0.0028
      6 C          63.2946   84.6444    8.5039 C.ar    1  UNL1        0.0295
      7 C          63.4296   84.0250    9.8633 C.ar    1  UNL1        0.1424
      8 F          64.3198   82.8338   10.0597 F       1  UNL1       -0.2041
      9 C          62.6743   84.5967   11.0264 C.ar    1  UNL1        0.0590
     10 C          61.7840   85.7878   10.8301 C.ar    1  UNL1        0.1408
     11 F          61.0288   86.3595   11.9931 F       1  UNL1       -0.2043
     12 C          61.6852   88.4290   10.1120 C.3     1  UNL1        0.3254
     13 F          60.9056   88.6881   11.3672 F       1  UNL1       -0.1949
     14 F          62.7196   88.3692    9.0275 F       1  UNL1       -0.1949
     15 C          62.6116   89.2596   10.9499 C.ar    1  UNL1        0.1218
     16 C          62.9653   88.8182   12.3391 C.ar    1  UNL1        0.0202
     17 C          63.8917   89.6488   13.1770 C.ar    1  UNL1        0.0029
     18 C          64.4644   90.9208   12.6256 C.ar    1  UNL1        0.0192
     19 C          64.1106   91.3622   11.2363 C.ar    1  UNL1        0.0986
     20 N          63.1843   90.5316   10.3985 N.ar    1  UNL1       -0.2427
     21 C          65.3908   91.7514   13.4633 C.ar    1  UNL1        0.0016
     22 C          65.9727   91.1848   14.7244 C.ar    1  UNL1        0.0024
     23 C          66.8991   92.0154   15.5622 C.ar    1  UNL1        0.0296
     24 C          67.2435   93.4126   15.1390 C.ar    1  UNL1        0.1401
     25 F          68.1699   94.2432   15.9768 F       1  UNL1       -0.2042
     26 C          66.6616   93.9792   13.8779 C.ar    1  UNL1        0.0296
     27 C          65.7352   93.1486   13.0401 C.ar    1  UNL1        0.0024
     28 C          59.8686   88.7896    9.0778 C.3     1  UNL1        0.1661
     29 N          59.5700   89.2826    7.6930 N.ar    1  UNL1       -0.2271
     30 C          58.3199   89.0098    6.9103 C.ar    1  UNL1        0.1973
     31 N          58.4465   89.6936    5.5812 N.ar    1  UNL1       -0.2007
     32 C          59.7749   90.3891    5.5425 C.ar    1  UNL1        0.2210
     33 N          60.4693   90.1351    6.8476 N.ar    1  UNL1       -0.1451
@<TRIPOS>BOND
     1     1     2    1
     2     2    28    1
     3    28    29    1
     4    29    30   ar
     5    30    31   ar
     6    31    32   ar
     7    32    33   ar
     8     2     4    1
     9     4     5   ar
    10     5     6   ar
    11     6     7   ar
    12     7     8    1
    13     7     9   ar
    14     9    10   ar
    15    10    11    1
    16     2    12    1
    17    12    13    1
    18    12    14    1
    19    12    15    1
    20    15    16   ar
    21    16    17   ar
    22    17    18   ar
    23    18    21    1
    24    21    22   ar
    25    22    23   ar
    26    23    24   ar
    27    24    25    1
    28    24    26   ar
    29    26    27   ar
    30    18    19   ar
    31    19    20   ar
    32    33    29   ar
    33    10     4   ar
    34    20    15   ar
    35    27    21   ar
    36     1     3    1
@<TRIPOS>MOLECULE
*****
 33 36 0 0 0
SMALL
GASTEIGER

@<TRIPOS>ATOM
      1 O          63.3846   91.1962   13.2483 O.3     1  UNL1       -0.3755
      2 C          63.3106   89.7154   13.0209 C.3     1  UNL1        0.1932
      3 H          63.3578   91.6562   12.3948 H       1  UNL1        0.2110
      4 C          62.3337   89.9358   11.9041 C.ar    1  UNL1        0.0368
      5 C          62.8311   90.2060   10.5150 C.ar    1  UNL1        0.0028
      6 C          61.8543   90.4264    9.3982 C.ar    1  UNL1        0.0295
      7 C          60.3801   90.3767    9.6705 C.ar    1  UNL1        0.1424
      8 F          59.4032   90.5971    8.5537 F       1  UNL1       -0.2041
      9 C          59.8827   90.1065   11.0596 C.ar    1  UNL1        0.0590
     10 C          60.8595   89.8861   12.1764 C.ar    1  UNL1        0.1408
     11 F          60.3621   89.6159   13.5655 F       1  UNL1       -0.2043
     12 C          63.2366   88.2346   12.7934 C.3     1  UNL1        0.3254
     13 F          62.7882   88.1084   11.3675 F       1  UNL1       -0.1949
     14 F          63.6802   87.9954   14.2061 F       1  UNL1       -0.1949
     15 C          63.1626   86.7538   12.5658 C.ar    1  UNL1        0.1218
     16 C          62.4481   86.2147   11.3622 C.ar    1  UNL1        0.0202
     17 C          62.3740   84.7339   11.1346 C.ar    1  UNL1        0.0029
     18 C          63.0145   83.7922   12.1108 C.ar    1  UNL1        0.0192
     19 C          63.7291   84.3313   13.3145 C.ar    1  UNL1        0.0986
     20 N          63.8030   85.8121   13.5420 N.ar    1  UNL1       -0.2427
     21 C          62.9405   82.3114   11.8833 C.ar    1  UNL1        0.0016
     22 C          62.5596   81.3977   13.0102 C.ar    1  UNL1        0.0024
     23 C          62.4855   79.9168   12.7827 C.ar    1  UNL1        0.0296
     24 C          62.7925   79.3498   11.4284 C.ar    1  UNL1        0.1401
     25 F          62.7185   77.8690   11.2009 F       1  UNL1       -0.2042
     26 C          63.1735   80.2636   10.3015 C.ar    1  UNL1        0.0296
     27 C          63.2475   81.7444   10.5290 C.ar    1  UNL1        0.0024
     28 C          64.2874   89.4950   14.1376 C.3     1  UNL1        0.1661
     29 N          64.7666   90.6577   14.9553 N.ar    1  UNL1       -0.2271
     30 C          66.1247   91.2898   14.8781 C.ar    1  UNL1        0.1973
     31 N          66.1693   92.4151   15.8688 N.ar    1  UNL1       -0.2007
     32 C          64.8387   92.4786   16.5583 C.ar    1  UNL1        0.2210
     33 N          63.9718   91.3925   15.9937 N.ar    1  UNL1       -0.1451
@<TRIPOS>BOND
     1     1     2    1
     2     2    28    1
     3    28    29    1
     4    29    30   ar
     5    30    31   ar
     6    31    32   ar
     7    32    33   ar
     8     2     4    1
     9     4     5   ar
    10     5     6   ar
    11     6     7   ar
    12     7     8    1
    13     7     9   ar
    14     9    10   ar
    15    10    11    1
    16     2    12    1
    17    12    13    1
    18    12    14    1
    19    12    15    1
    20    15    16   ar
    21    16    17   ar
    22    17    18   ar
    23    18    21    1
    24    21    22   ar
    25    22    23   ar
    26    23    24   ar
    27    24    25    1
    28    24    26   ar
    29    26    27   ar
    30    18    19   ar
    31    19    20   ar
    32    33    29   ar
    33    10     4   ar
    34    20    15   ar
    35    27    21   ar
    36     1     3    1
@<TRIPOS>MOLECULE
*****
 33 36 0 0 0
SMALL
GASTEIGER

@<TRIPOS>ATOM
      1 O          63.4317   92.6364   11.3327 O.3     1  UNL1       -0.3755
      2 C          63.3258   91.1604   11.5780 C.3     1  UNL1        0.1932
      3 H          63.5768   93.0946   12.1752 H       1  UNL1        0.2110
      4 C          64.3970   91.2574   12.6236 C.ar    1  UNL1        0.0368
      5 C          64.0781   90.9431   14.0552 C.ar    1  UNL1        0.0028
      6 C          65.1492   91.0400   15.1009 C.ar    1  UNL1        0.0295
      7 C          66.5391   91.4512   14.7148 C.ar    1  UNL1        0.1424
      8 F          67.6103   91.5482   15.7605 F       1  UNL1       -0.2041
      9 C          66.8579   91.7655   13.2832 C.ar    1  UNL1        0.0590
     10 C          65.7868   91.6686   12.2376 C.ar    1  UNL1        0.1408
     11 F          66.1057   91.9828   10.8059 F       1  UNL1       -0.2043
     12 C          63.2199   89.6844   11.8233 C.3     1  UNL1        0.3254
     13 F          62.8135   89.5841   13.2637 F       1  UNL1       -0.1949
     14 F          63.6123   89.4197   10.3999 F       1  UNL1       -0.1949
     15 C          63.1139   88.2084   12.0686 C.ar    1  UNL1        0.1218
     16 C          62.4081   87.3320   11.0768 C.ar    1  UNL1        0.0202
     17 C          62.3021   85.8559   11.3222 C.ar    1  UNL1        0.0029
     18 C          62.9021   85.2564   12.5593 C.ar    1  UNL1        0.0192
     19 C          63.6080   86.1328   13.5511 C.ar    1  UNL1        0.0986
     20 N          63.7139   87.6088   13.3058 N.ar    1  UNL1       -0.2427
     21 C          62.7962   83.7804   12.8047 C.ar    1  UNL1        0.0016
     22 C          63.0535   82.8139   11.6868 C.ar    1  UNL1        0.0024
     23 C          62.9476   81.3379   11.9321 C.ar    1  UNL1        0.0296
     24 C          62.5843   80.8284   13.2954 C.ar    1  UNL1        0.1401
     25 F          62.4784   79.3524   13.5408 F       1  UNL1       -0.2042
     26 C          62.3270   81.7949   14.4133 C.ar    1  UNL1        0.0296
     27 C          62.4329   83.2709   14.1679 C.ar    1  UNL1        0.0024
     28 C          62.2547   91.0635   10.5324 C.3     1  UNL1        0.1661
     29 N          60.9884   90.3138   10.8231 N.ar    1  UNL1       -0.2271
     30 C          60.2911   89.3666    9.8922 C.ar    1  UNL1        0.1973
     31 N          59.0689   88.8470   10.5895 N.ar    1  UNL1       -0.2007
     32 C          59.0107   89.4732   11.9513 C.ar    1  UNL1        0.2210
     33 N          60.1971   90.3797   12.0957 N.ar    1  UNL1       -0.1451
@<TRIPOS>BOND
     1     1     2    1
     2     2    28    1
     3    28    29    1
     4    29    30   ar
     5    30    31   ar
     6    31    32   ar
     7    32    33   ar
     8     2     4    1
     9     4     5   ar
    10     5     6   ar
    11     6     7   ar
    12     7     8    1
    13     7     9   ar
    14     9    10   ar
    15    10    11    1
    16     2    12    1
    17    12    13    1
    18    12    14    1
    19    12    15    1
    20    15    16   ar
    21    16    17   ar
    22    17    18   ar
    23    18    21    1
    24    21    22   ar
    25    22    23   ar
    26    23    24   ar
    27    24    25    1
    28    24    26   ar
    29    26    27   ar
    30    18    19   ar
    31    19    20   ar
    32    33    29   ar
    33    10     4   ar
    34    20    15   ar
    35    27    21   ar
    36     1     3    1
