@<TRIPOS>MOLECULE
*****
 25 27 0 0 0
SMALL
GASTEIGER

@<TRIPOS>ATOM
      1 O          66.6573   92.5458   15.6331 O.2     1  UNL1       -0.2739
      2 C          65.5791   91.9210   14.7981 C.2     1  UNL1        0.2418
      3 C          64.5533   91.0340   15.4391 C.3     1  UNL1        0.1711
      4 C          63.4751   90.4093   14.6042 C.2     1  UNL1        0.2418
      5 O          62.4492   89.5222   15.2453 O.2     1  UNL1       -0.2739
      6 N          63.4226   90.6715   13.1283 N.am    1  UNL1       -0.2131
      7 C          64.4484   91.5585   12.4873 C.2     1  UNL1        0.3188
      8 O          64.3960   91.8208   11.0112 O.2     1  UNL1       -0.2515
      9 N          65.5266   92.1833   13.3222 N.am    1  UNL1       -0.2131
     10 C          62.3444   90.0468   12.2933 C.3     1  UNL1        0.1071
     11 C          62.6108   88.7651   11.5610 C.3     1  UNL1        0.0484
     12 C          61.7102   88.3415   10.4387 C.ar    1  UNL1       -0.0205
     13 C          61.6003   86.8911   10.0719 C.ar    1  UNL1       -0.0042
     14 C          60.6998   86.4675    8.9496 C.ar    1  UNL1       -0.0003
     15 C          59.9091   87.4942    8.1941 C.ar    1  UNL1       -0.0000
     16 C          60.0191   88.9445    8.5608 C.ar    1  UNL1       -0.0003
     17 C          60.9196   89.3681    9.6831 C.ar    1  UNL1       -0.0042
     18 C          66.5525   93.0703   12.6811 C.3     1  UNL1        0.1071
     19 C          66.1660   94.4372   12.1991 C.3     1  UNL1        0.0484
     20 C          66.6279   94.9169   10.8551 C.ar    1  UNL1       -0.0205
     21 C          67.1660   93.9383    9.8537 C.ar    1  UNL1       -0.0042
     22 C          67.6279   94.4181    8.5096 C.ar    1  UNL1       -0.0003
     23 C          67.5517   95.8764    8.1669 C.ar    1  UNL1       -0.0000
     24 C          67.0136   96.8550    9.1683 C.ar    1  UNL1       -0.0003
     25 C          66.5517   96.3753   10.5124 C.ar    1  UNL1       -0.0042
@<TRIPOS>BOND
     1     1     2    2
     2     2     3    1
     3     3     4    1
     4     4     5    2
     5     4     6   am
     6     6    10    1
     7    10    11    1
     8    11    12    1
     9    12    13   ar
    10    13    14   ar
    11    14    15   ar
    12    15    16   ar
    13    16    17   ar
    14     6     7   am
    15     7     8    2
    16     7     9   am
    17     9    18    1
    18    18    19    1
    19    19    20    1
    20    20    21   ar
    21    21    22   ar
    22    22    23   ar
    23    23    24   ar
    24    24    25   ar
    25     9     2   am
    26    25    20   ar
    27    17    12   ar
@<TRIPOS>MOLECULE
*****
 25 27 0 0 0
SMALL
GASTEIGER

@<TRIPOS>ATOM
      1 O          64.0331   82.0251   14.9690 O.2     1  UNL1       -0.2739
      2 C          63.8362   82.7619   13.6773 C.2     1  UNL1        0.2418
      3 C          64.3126   82.1583   12.3894 C.3     1  UNL1        0.1711
      4 C          64.1156   82.8950   11.0978 C.2     1  UNL1        0.2418
      5 O          64.5920   82.2914    9.8098 O.2     1  UNL1       -0.2739
      6 N          63.4423   84.2354   11.0940 N.am    1  UNL1       -0.2131
      7 C          62.9659   84.8390   12.3819 C.2     1  UNL1        0.3188
      8 O          62.2925   86.1794   12.3782 O.2     1  UNL1       -0.2515
      9 N          63.1628   84.1022   13.6736 N.am    1  UNL1       -0.2131
     10 C          63.2453   84.9721    9.8023 C.3     1  UNL1        0.1071
     11 C          61.8931   85.0004    9.1537 C.3     1  UNL1        0.0484
     12 C          61.2143   86.3121    8.8917 C.ar    1  UNL1       -0.0205
     13 C          61.7461   87.5693    9.5137 C.ar    1  UNL1       -0.0042
     14 C          61.0672   88.8810    9.2518 C.ar    1  UNL1       -0.0003
     15 C          59.8565   88.9355    8.3678 C.ar    1  UNL1       -0.0000
     16 C          59.3247   87.6784    7.7459 C.ar    1  UNL1       -0.0003
     17 C          60.0036   86.3667    8.0079 C.ar    1  UNL1       -0.0042
     18 C          62.6864   84.7058   14.9615 C.3     1  UNL1        0.1071
     19 C          63.6417   85.4684   15.8310 C.3     1  UNL1        0.0484
     20 C          63.6834   86.9663   15.7654 C.ar    1  UNL1       -0.0205
     21 C          63.0458   87.7826   16.8503 C.ar    1  UNL1       -0.0042
     22 C          63.0875   89.2806   16.7847 C.ar    1  UNL1       -0.0003
     23 C          63.7668   89.9623   15.6342 C.ar    1  UNL1       -0.0000
     24 C          64.4045   89.1460   14.5492 C.ar    1  UNL1       -0.0003
     25 C          64.3628   87.6481   14.6148 C.ar    1  UNL1       -0.0042
@<TRIPOS>BOND
     1     1     2    2
     2     2     3    1
     3     3     4    1
     4     4     5    2
     5     4     6   am
     6     6    10    1
     7    10    11    1
     8    11    12    1
     9    12    13   ar
    10    13    14   ar
    11    14    15   ar
    12    15    16   ar
    13    16    17   ar
    14     6     7   am
    15     7     8    2
    16     7     9   am
    17     9    18    1
    18    18    19    1
    19    19    20    1
    20    20    21   ar
    21    21    22   ar
    22    22    23   ar
    23    23    24   ar
    24    24    25   ar
    25     9     2   am
    26    25    20   ar
    27    17    12   ar
@<TRIPOS>MOLECULE
*****
 25 27 0 0 0
SMALL
GASTEIGER

@<TRIPOS>ATOM
      1 O          64.3374   82.2331    9.7929 O.2     1  UNL1       -0.2739
      2 C          63.9572   82.8811   11.0911 C.2     1  UNL1        0.2418
      3 C          64.1672   82.1502   12.3840 C.3     1  UNL1        0.1711
      4 C          63.7871   82.7983   13.6823 C.2     1  UNL1        0.2418
      5 O          63.9971   82.0674   14.9752 O.2     1  UNL1       -0.2739
      6 N          63.1969   84.1773   13.6877 N.am    1  UNL1       -0.2131
      7 C          62.9869   84.9082   12.3948 C.2     1  UNL1        0.3188
      8 O          62.3967   86.2873   12.4001 O.2     1  UNL1       -0.2515
      9 N          63.3671   84.2601   11.0965 N.am    1  UNL1       -0.2131
     10 C          62.8167   84.8254   14.9859 C.3     1  UNL1        0.1071
     11 C          63.8301   85.6246   15.7502 C.3     1  UNL1        0.0484
     12 C          63.7898   87.1235   15.7082 C.ar    1  UNL1       -0.0205
     13 C          63.1249   87.8872   16.8149 C.ar    1  UNL1       -0.0042
     14 C          63.0846   89.3861   16.7729 C.ar    1  UNL1       -0.0003
     15 C          63.7092   90.1212   15.6242 C.ar    1  UNL1       -0.0000
     16 C          64.3741   89.3575   14.5176 C.ar    1  UNL1       -0.0003
     17 C          64.4144   87.8587   14.5596 C.ar    1  UNL1       -0.0042
     18 C          63.1570   84.9911    9.8035 C.3     1  UNL1        0.1071
     19 C          61.7914   85.0443    9.1853 C.3     1  UNL1        0.0484
     20 C          61.1471   86.3690    8.9028 C.ar    1  UNL1       -0.0205
     21 C          61.6751   87.6136    9.5525 C.ar    1  UNL1       -0.0042
     22 C          61.0307   88.9384    9.2699 C.ar    1  UNL1       -0.0003
     23 C          59.8584   89.0185    8.3375 C.ar    1  UNL1       -0.0000
     24 C          59.3305   87.7739    7.6878 C.ar    1  UNL1       -0.0003
     25 C          59.9748   86.4492    7.9704 C.ar    1  UNL1       -0.0042
@<TRIPOS>BOND
     1     1     2    2
     2     2     3    1
     3     3     4    1
     4     4     5    2
     5     4     6   am
     6     6    10    1
     7    10    11    1
     8    11    12    1
     9    12    13   ar
    10    13    14   ar
    11    14    15   ar
    12    15    16   ar
    13    16    17   ar
    14     6     7   am
    15     7     8    2
    16     7     9   am
    17     9    18    1
    18    18    19    1
    19    19    20    1
    20    20    21   ar
    21    21    22   ar
    22    22    23   ar
    23    23    24   ar
    24    24    25   ar
    25     9     2   am
    26    25    20   ar
    27    17    12   ar
@<TRIPOS>MOLECULE
*****
 25 27 0 0 0
SMALL
GASTEIGER

@<TRIPOS>ATOM
      1 O          62.4242   89.7182   15.0812 O.2     1  UNL1       -0.2739
      2 C          63.4591   90.5636   14.3998 C.2     1  UNL1        0.2418
      3 C          64.5144   91.2559   15.2103 C.3     1  UNL1        0.1711
      4 C          65.5492   92.1013   14.5289 C.2     1  UNL1        0.2418
      5 O          66.6045   92.7937   15.3395 O.2     1  UNL1       -0.2739
      6 N          65.5287   92.2545   13.0369 N.am    1  UNL1       -0.2131
      7 C          64.4734   91.5621   12.2263 C.2     1  UNL1        0.3188
      8 O          64.4529   91.7152   10.7343 O.2     1  UNL1       -0.2515
      9 N          63.4386   90.7167   12.9078 N.am    1  UNL1       -0.2131
     10 C          66.5635   93.0999   12.3554 C.3     1  UNL1        0.1071
     11 C          66.2972   94.5546   12.1048 C.3     1  UNL1        0.0484
     12 C          66.3216   95.0912   10.7043 C.ar    1  UNL1       -0.0205
     13 C          65.5276   96.3153   10.3562 C.ar    1  UNL1       -0.0042
     14 C          65.5520   96.8519    8.9556 C.ar    1  UNL1       -0.0003
     15 C          66.3704   96.1643    7.9032 C.ar    1  UNL1       -0.0000
     16 C          67.1644   94.9402    8.2514 C.ar    1  UNL1       -0.0003
     17 C          67.1399   94.4036    9.6519 C.ar    1  UNL1       -0.0042
     18 C          62.3833   90.0244   12.0972 C.3     1  UNL1        0.1071
     19 C          62.7485   88.8531   11.2342 C.3     1  UNL1        0.0484
     20 C          61.7632   88.3204   10.2366 C.ar    1  UNL1       -0.0205
     21 C          61.6578   86.8426   10.0022 C.ar    1  UNL1       -0.0042
     22 C          60.6724   86.3098    9.0045 C.ar    1  UNL1       -0.0003
     23 C          59.7925   87.2549    8.2413 C.ar    1  UNL1       -0.0000
     24 C          59.8979   88.7327    8.4757 C.ar    1  UNL1       -0.0003
     25 C          60.8832   89.2655    9.4733 C.ar    1  UNL1       -0.0042
@<TRIPOS>BOND
     1     1     2    2
     2     2     3    1
     3     3     4    1
     4     4     5    2
     5     4     6   am
     6     6    10    1
     7    10    11    1
     8    11    12    1
     9    12    13   ar
    10    13    14   ar
    11    14    15   ar
    12    15    16   ar
    13    16    17   ar
    14     6     7   am
    15     7     8    2
    16     7     9   am
    17     9    18    1
    18    18    19    1
    19    19    20    1
    20    20    21   ar
    21    21    22   ar
    22    22    23   ar
    23    23    24   ar
    24    24    25   ar
    25     9     2   am
    26    25    20   ar
    27    17    12   ar
@<TRIPOS>MOLECULE
*****
 25 27 0 0 0
SMALL
GASTEIGER

@<TRIPOS>ATOM
      1 O          64.9935   82.2476   10.8844 O.2     1  UNL1       -0.2739
      2 C          64.0233   83.3788   10.7140 C.2     1  UNL1        0.2418
      3 C          63.7012   83.8903    9.3412 C.3     1  UNL1        0.1711
      4 C          62.7310   85.0215    9.1707 C.2     1  UNL1        0.2418
      5 O          62.4089   85.5329    7.7978 O.2     1  UNL1       -0.2739
      6 N          62.0829   85.6413   10.3731 N.am    1  UNL1       -0.2131
      7 C          62.4050   85.1299   11.7459 C.2     1  UNL1        0.3188
      8 O          61.7569   85.7497   12.9484 O.2     1  UNL1       -0.2515
      9 N          63.3752   83.9987   11.9163 N.am    1  UNL1       -0.2131
     10 C          61.1127   86.7725   10.2027 C.3     1  UNL1        0.1071
     11 C          61.5640   88.0603    9.5798 C.3     1  UNL1        0.0484
     12 C          62.3120   89.0687   10.4004 C.ar    1  UNL1       -0.0205
     13 C          62.6692   90.4004    9.8094 C.ar    1  UNL1       -0.0042
     14 C          63.4172   91.4088   10.6301 C.ar    1  UNL1       -0.0003
     15 C          63.8080   91.0857   12.0418 C.ar    1  UNL1       -0.0000
     16 C          63.4508   89.7541   12.6328 C.ar    1  UNL1       -0.0003
     17 C          62.7028   88.7456   11.8121 C.ar    1  UNL1       -0.0042
     18 C          63.6973   83.4872   13.2892 C.3     1  UNL1        0.1071
     19 C          64.6611   84.2358   14.1614 C.3     1  UNL1        0.0484
     20 C          64.1709   85.3528   15.0343 C.ar    1  UNL1       -0.0205
     21 C          63.3228   85.0502   16.2340 C.ar    1  UNL1       -0.0042
     22 C          62.8326   86.1673   17.1069 C.ar    1  UNL1       -0.0003
     23 C          63.1905   87.5868   16.7802 C.ar    1  UNL1       -0.0000
     24 C          64.0387   87.8894   15.5806 C.ar    1  UNL1       -0.0003
     25 C          64.5289   86.7724   14.7077 C.ar    1  UNL1       -0.0042
@<TRIPOS>BOND
     1     1     2    2
     2     2     3    1
     3     3     4    1
     4     4     5    2
     5     4     6   am
     6     6    10    1
     7    10    11    1
     8    11    12    1
     9    12    13   ar
    10    13    14   ar
    11    14    15   ar
    12    15    16   ar
    13    16    17   ar
    14     6     7   am
    15     7     8    2
    16     7     9   am
    17     9    18    1
    18    18    19    1
    19    19    20    1
    20    20    21   ar
    21    21    22   ar
    22    22    23   ar
    23    23    24   ar
    24    24    25   ar
    25     9     2   am
    26    25    20   ar
    27    17    12   ar
@<TRIPOS>MOLECULE
*****
 25 27 0 0 0
SMALL
GASTEIGER

@<TRIPOS>ATOM
      1 O          61.9648   90.8556   11.0822 O.2     1  UNL1       -0.2739
      2 C          62.3993   89.5230   11.6165 C.2     1  UNL1        0.2418
      3 C          61.9476   88.2613   10.9428 C.3     1  UNL1        0.1711
      4 C          62.3821   86.9288   11.4771 C.2     1  UNL1        0.2418
      5 O          61.9304   85.6670   10.8033 O.2     1  UNL1       -0.2739
      6 N          63.2683   86.8580   12.6852 N.am    1  UNL1       -0.2131
      7 C          63.7200   88.1197   13.3590 C.2     1  UNL1        0.3188
      8 O          64.6063   88.0489   14.5671 O.2     1  UNL1       -0.2515
      9 N          63.2855   89.4522   12.8246 N.am    1  UNL1       -0.2131
     10 C          63.7029   85.5254   13.2195 C.3     1  UNL1        0.1071
     11 C          62.7048   84.6196   13.8777 C.3     1  UNL1        0.0484
     12 C          62.6292   83.1744   13.4835 C.ar    1  UNL1       -0.0205
     13 C          61.9874   82.1785   14.4035 C.ar    1  UNL1       -0.0042
     14 C          61.9119   80.7332   14.0093 C.ar    1  UNL1       -0.0003
     15 C          62.4781   80.2838   12.6949 C.ar    1  UNL1       -0.0000
     16 C          63.1199   81.2796   11.7749 C.ar    1  UNL1       -0.0003
     17 C          63.1954   82.7249   12.1692 C.ar    1  UNL1       -0.0042
     18 C          63.7372   90.7140   13.4985 C.3     1  UNL1        0.1071
     19 C          64.9675   91.4232   13.0152 C.3     1  UNL1        0.0484
     20 C          66.0311   91.8297   13.9916 C.ar    1  UNL1       -0.0205
     21 C          67.4633   91.9056   13.5521 C.ar    1  UNL1       -0.0042
     22 C          68.5269   92.3121   14.5286 C.ar    1  UNL1       -0.0003
     23 C          68.1584   92.6427   15.9445 C.ar    1  UNL1       -0.0000
     24 C          66.7263   92.5667   16.3840 C.ar    1  UNL1       -0.0003
     25 C          65.6626   92.1602   15.4076 C.ar    1  UNL1       -0.0042
@<TRIPOS>BOND
     1     1     2    2
     2     2     3    1
     3     3     4    1
     4     4     5    2
     5     4     6   am
     6     6    10    1
     7    10    11    1
     8    11    12    1
     9    12    13   ar
    10    13    14   ar
    11    14    15   ar
    12    15    16   ar
    13    16    17   ar
    14     6     7   am
    15     7     8    2
    16     7     9   am
    17     9    18    1
    18    18    19    1
    19    19    20    1
    20    20    21   ar
    21    21    22   ar
    22    22    23   ar
    23    23    24   ar
    24    24    25   ar
    25     9     2   am
    26    25    20   ar
    27    17    12   ar
@<TRIPOS>MOLECULE
*****
 25 27 0 0 0
SMALL
GASTEIGER

@<TRIPOS>ATOM
      1 O          63.3907   90.8324   16.1714 O.2     1  UNL1       -0.2739
      2 C          63.3927   89.3344   16.0933 C.2     1  UNL1        0.2418
      3 C          62.9420   88.5214   17.2704 C.3     1  UNL1        0.1711
      4 C          62.9440   87.0234   17.1923 C.2     1  UNL1        0.2418
      5 O          62.4932   86.2104   18.3696 O.2     1  UNL1       -0.2739
      6 N          63.3967   86.3385   15.9370 N.am    1  UNL1       -0.2131
      7 C          63.8474   87.1515   14.7598 C.2     1  UNL1        0.3188
      8 O          64.3002   86.4666   13.5044 O.2     1  UNL1       -0.2515
      9 N          63.8454   88.6495   14.8380 N.am    1  UNL1       -0.2131
     10 C          63.3987   84.8405   15.8588 C.3     1  UNL1        0.1071
     11 C          62.2171   84.1180   15.2829 C.3     1  UNL1        0.0484
     12 C          62.4112   83.1295   14.1714 C.ar    1  UNL1       -0.0205
     13 C          62.0592   81.6865   14.3810 C.ar    1  UNL1       -0.0042
     14 C          62.2533   80.6981   13.2696 C.ar    1  UNL1       -0.0003
     15 C          62.7993   81.1527   11.9485 C.ar    1  UNL1       -0.0000
     16 C          63.1513   82.5957   11.7389 C.ar    1  UNL1       -0.0003
     17 C          62.9572   83.5841   12.8504 C.ar    1  UNL1       -0.0042
     18 C          64.2962   89.4625   13.6607 C.3     1  UNL1        0.1071
     19 C          63.3083   90.3032   12.9074 C.3     1  UNL1        0.0484
     20 C          62.4706   89.6880   11.8259 C.ar    1  UNL1       -0.0205
     21 C          62.7391   88.2820   11.3775 C.ar    1  UNL1       -0.0042
     22 C          61.9013   87.6668   10.2960 C.ar    1  UNL1       -0.0003
     23 C          60.7951   88.4576    9.6629 C.ar    1  UNL1       -0.0000
     24 C          60.5266   89.8636   10.1113 C.ar    1  UNL1       -0.0003
     25 C          61.3643   90.4788   11.1928 C.ar    1  UNL1       -0.0042
@<TRIPOS>BOND
     1     1     2    2
     2     2     3    1
     3     3     4    1
     4     4     5    2
     5     4     6   am
     6     6    10    1
     7    10    11    1
     8    11    12    1
     9    12    13   ar
    10    13    14   ar
    11    14    15   ar
    12    15    16   ar
    13    16    17   ar
    14     6     7   am
    15     7     8    2
    16     7     9   am
    17     9    18    1
    18    18    19    1
    19    19    20    1
    20    20    21   ar
    21    21    22   ar
    22    22    23   ar
    23    23    24   ar
    24    24    25   ar
    25     9     2   am
    26    25    20   ar
    27    17    12   ar
@<TRIPOS>MOLECULE
*****
 25 27 0 0 0
SMALL
GASTEIGER

@<TRIPOS>ATOM
      1 O          59.9063   90.5073    9.7262 O.2     1  UNL1       -0.2739
      2 C          60.5556   89.1728    9.9439 C.2     1  UNL1        0.2418
      3 C          60.1996   88.0128    9.0621 C.3     1  UNL1        0.1711
      4 C          60.8488   86.6782    9.2799 C.2     1  UNL1        0.2418
      5 O          60.4928   85.5181    8.3980 O.2     1  UNL1       -0.2739
      6 N          61.8541   86.5036   10.3794 N.am    1  UNL1       -0.2131
      7 C          62.2101   87.6636   11.2612 C.2     1  UNL1        0.3188
      8 O          63.2154   87.4891   12.3607 O.2     1  UNL1       -0.2515
      9 N          61.5608   88.9982   11.0434 N.am    1  UNL1       -0.2131
     10 C          62.5033   85.1691   10.5971 C.3     1  UNL1        0.1071
     11 C          62.9158   84.7520   11.9776 C.3     1  UNL1        0.0484
     12 C          62.7375   83.3285   12.4157 C.ar    1  UNL1       -0.0205
     13 C          62.2462   83.0259   13.8004 C.ar    1  UNL1       -0.0042
     14 C          62.0680   81.6024   14.2385 C.ar    1  UNL1       -0.0003
     15 C          62.3809   80.4816   13.2920 C.ar    1  UNL1       -0.0000
     16 C          62.8722   80.7842   11.9074 C.ar    1  UNL1       -0.0003
     17 C          63.0505   82.2077   11.4693 C.ar    1  UNL1       -0.0042
     18 C          61.9169   90.1582   11.9253 C.3     1  UNL1        0.1071
     19 C          62.9878   91.1201   11.5034 C.3     1  UNL1        0.0484
     20 C          64.1853   91.3406   12.3794 C.ar    1  UNL1       -0.0205
     21 C          65.2580   92.2997   11.9558 C.ar    1  UNL1       -0.0042
     22 C          66.4555   92.5202   12.8318 C.ar    1  UNL1       -0.0003
     23 C          66.5803   91.7818   14.1315 C.ar    1  UNL1       -0.0000
     24 C          65.5075   90.8227   14.5551 C.ar    1  UNL1       -0.0003
     25 C          64.3101   90.6021   13.6791 C.ar    1  UNL1       -0.0042
@<TRIPOS>BOND
     1     1     2    2
     2     2     3    1
     3     3     4    1
     4     4     5    2
     5     4     6   am
     6     6    10    1
     7    10    11    1
     8    11    12    1
     9    12    13   ar
    10    13    14   ar
    11    14    15   ar
    12    15    16   ar
    13    16    17   ar
    14     6     7   am
    15     7     8    2
    16     7     9   am
    17     9    18    1
    18    18    19    1
    19    19    20    1
    20    20    21   ar
    21    21    22   ar
    22    22    23   ar
    23    23    24   ar
    24    24    25   ar
    25     9     2   am
    26    25    20   ar
    27    17    12   ar
@<TRIPOS>MOLECULE
*****
 25 27 0 0 0
SMALL
GASTEIGER

@<TRIPOS>ATOM
      1 O          63.2270   90.9941   16.6407 O.2     1  UNL1       -0.2739
      2 C          63.3096   89.5117   16.4270 C.2     1  UNL1        0.2418
      3 C          62.8858   88.5720   17.5166 C.3     1  UNL1        0.1711
      4 C          62.9684   87.0897   17.3028 C.2     1  UNL1        0.2418
      5 O          62.5445   86.1500   18.3926 O.2     1  UNL1       -0.2739
      6 N          63.4750   86.5469   15.9995 N.am    1  UNL1       -0.2131
      7 C          63.8988   87.4866   14.9099 C.2     1  UNL1        0.3188
      8 O          64.4054   86.9439   13.6064 O.2     1  UNL1       -0.2515
      9 N          63.8162   88.9690   15.1236 N.am    1  UNL1       -0.2131
     10 C          63.5576   85.0645   15.7857 C.3     1  UNL1        0.1071
     11 C          62.3526   84.3066   15.3130 C.3     1  UNL1        0.0484
     12 C          62.4737   83.3427   14.1701 C.ar    1  UNL1       -0.0205
     13 C          62.9753   83.8174   12.8385 C.ar    1  UNL1       -0.0042
     14 C          63.0964   82.8535   11.6956 C.ar    1  UNL1       -0.0003
     15 C          62.7158   81.4149   11.8843 C.ar    1  UNL1       -0.0000
     16 C          62.2141   80.9402   13.2158 C.ar    1  UNL1       -0.0003
     17 C          62.0931   81.9041   14.3588 C.ar    1  UNL1       -0.0042
     18 C          64.2401   89.9086   14.0339 C.3     1  UNL1        0.1071
     19 C          65.4301   90.7999   14.2329 C.3     1  UNL1        0.0484
     20 C          65.6417   91.9807   13.3325 C.ar    1  UNL1       -0.0205
     21 C          65.1678   91.9337   11.9101 C.ar    1  UNL1       -0.0042
     22 C          65.3795   93.1146   11.0096 C.ar    1  UNL1       -0.0003
     23 C          66.0650   94.3424   11.5316 C.ar    1  UNL1       -0.0000
     24 C          66.5389   94.3894   12.9540 C.ar    1  UNL1       -0.0003
     25 C          66.3273   93.2086   13.8545 C.ar    1  UNL1       -0.0042
@<TRIPOS>BOND
     1     1     2    2
     2     2     3    1
     3     3     4    1
     4     4     5    2
     5     4     6   am
     6     6    10    1
     7    10    11    1
     8    11    12    1
     9    12    13   ar
    10    13    14   ar
    11    14    15   ar
    12    15    16   ar
    13    16    17   ar
    14     6     7   am
    15     7     8    2
    16     7     9   am
    17     9    18    1
    18    18    19    1
    19    19    20    1
    20    20    21   ar
    21    21    22   ar
    22    22    23   ar
    23    23    24   ar
    24    24    25   ar
    25     9     2   am
    26    25    20   ar
    27    17    12   ar
