@<TRIPOS>MOLECULE
*****
 23 27 0 0 0
SMALL
GASTEIGER

@<TRIPOS>ATOM
      1 C          62.7534   83.3377   12.0068 C.3     1  UNL1        0.0896
      2 N          62.7928   85.5354   12.0985 N.3     1  UNL1       -0.2721
      3 C          62.4114   85.9659   11.5424 C.3     1  UNL1        0.0726
      4 C          62.4257   86.7650   11.5758 C.3     1  UNL1        0.0254
      5 C          62.8340   87.8330   12.1943 C.3     1  UNL1        0.0674
      6 C          62.0255   87.4336   10.9957 C.ar    1  UNL1        0.0142
      7 C          61.6587   86.0918   10.4343 C.ar    1  UNL1       -0.0216
      8 C          60.8190   86.0017    9.1946 C.ar    1  UNL1       -0.0012
      9 C          60.3462   87.2532    8.5163 C.ar    1  UNL1        0.0394
     10 C          60.7130   88.5949    9.0778 C.ar    1  UNL1        0.1674
     11 O          60.2401   89.8464    8.3995 O.3     1  UNL1       -0.5029
     12 C          61.5526   88.6851   10.3174 C.ar    1  UNL1        0.1677
     13 O          62.0689   89.8581   11.0969 O.3     1  UNL1       -0.4733
     14 C          62.8609   89.3315   12.2568 C.3     1  UNL1        0.2007
     15 C          63.6030   90.0229   13.3619 C.3     1  UNL1        0.1724
     16 O          63.6299   91.5213   13.4244 O.3     1  UNL1       -0.3765
     17 C          64.3183   89.2158   14.4045 C.2     1  UNL1        0.0017
     18 C          64.2915   87.7173   14.3420 C.2     1  UNL1       -0.0267
     19 C          63.5493   87.0259   13.2369 C.3     1  UNL1        0.0441
     20 C          63.5224   85.5275   13.1744 C.3     1  UNL1        0.0663
     21 C          62.3135   85.1344   11.3854 C.3     1  UNL1        0.0424
     22 H          59.7157   89.7901    7.6251 H       1  UNL1        0.2923
     23 H          64.1487   91.8036   14.1939 H       1  UNL1        0.2109
@<TRIPOS>BOND
     1     1     2    1
     2     2     3    1
     3     3     4    1
     4     5     4    1
     5     5     6    1
     6     6     7   ar
     7     7     8   ar
     8     8     9   ar
     9     9    10   ar
    10    10    11    1
    11    10    12   ar
    12    12    13    1
    13    14    13    1
    14    14    15    1
    15    15    16    1
    16    15    17    1
    17    17    18    2
    18    19    18    1
    19    19    20    1
    20    20    21    1
    21    20     2    1
    22    14     5    1
    23    19     5    1
    24    12     6   ar
    25    21     7    1
    26    11    22    1
    27    16    23    1
@<TRIPOS>MOLECULE
*****
 23 27 0 0 0
SMALL
GASTEIGER

@<TRIPOS>ATOM
      1 C          60.7268   86.3880    8.2309 C.3     1  UNL1        0.0896
      2 N          61.7991   86.5136   10.1478 N.3     1  UNL1       -0.2721
      3 C          62.0167   87.2264   10.4384 C.3     1  UNL1        0.0726
      4 C          62.4066   87.2721   11.1355 C.3     1  UNL1        0.0254
      5 C          62.9201   86.6449   12.1518 C.3     1  UNL1        0.0674
      6 C          62.7408   88.0392   11.6288 C.ar    1  UNL1        0.0142
      7 C          62.0929   88.5687   10.3838 C.ar    1  UNL1       -0.0216
      8 C          62.0653   90.0455   10.1226 C.ar    1  UNL1       -0.0012
      9 C          62.6856   90.9929   11.1062 C.ar    1  UNL1        0.0394
     10 C          63.3335   90.4634   12.3512 C.ar    1  UNL1        0.1674
     11 O          63.9538   91.4108   13.3349 O.3     1  UNL1       -0.5029
     12 C          63.3611   88.9867   12.6124 C.ar    1  UNL1        0.1677
     13 O          63.9237   88.1778   13.7435 O.3     1  UNL1       -0.4733
     14 C          63.6511   86.7305   13.4588 C.3     1  UNL1        0.2007
     15 C          63.9742   85.4795   14.2208 C.3     1  UNL1        0.1724
     16 O          64.7052   85.5651   15.5278 O.3     1  UNL1       -0.3765
     17 C          63.5661   84.1429   13.6759 C.2     1  UNL1        0.0017
     18 C          62.8350   84.0572   12.3689 C.2     1  UNL1       -0.0267
     19 C          62.5120   85.3083   11.6069 C.3     1  UNL1        0.0441
     20 C          61.7809   85.2227   10.2999 C.3     1  UNL1        0.0663
     21 C          61.6127   87.3256    9.6951 C.3     1  UNL1        0.0424
     22 H          63.9365   92.3333   13.1717 H       1  UNL1        0.2923
     23 H          64.8329   84.6728   15.8859 H       1  UNL1        0.2109
@<TRIPOS>BOND
     1     1     2    1
     2     2     3    1
     3     3     4    1
     4     5     4    1
     5     5     6    1
     6     6     7   ar
     7     7     8   ar
     8     8     9   ar
     9     9    10   ar
    10    10    11    1
    11    10    12   ar
    12    12    13    1
    13    14    13    1
    14    14    15    1
    15    15    16    1
    16    15    17    1
    17    17    18    2
    18    19    18    1
    19    19    20    1
    20    20    21    1
    21    20     2    1
    22    14     5    1
    23    19     5    1
    24    12     6   ar
    25    21     7    1
    26    11    22    1
    27    16    23    1
@<TRIPOS>MOLECULE
*****
 23 27 0 0 0
SMALL
GASTEIGER

@<TRIPOS>ATOM
      1 C          66.5725   93.4505   10.0246 C.3     1  UNL1        0.0896
      2 N          65.5195   92.5247   11.7199 N.3     1  UNL1       -0.2721
      3 C          64.8890   92.0502   11.5882 C.3     1  UNL1        0.0726
      4 C          64.5061   91.7135   12.2047 C.3     1  UNL1        0.0254
      5 C          64.4186   91.5567   13.4922 C.3     1  UNL1        0.0674
      6 C          63.7364   91.1214   12.2293 C.ar    1  UNL1        0.0142
      7 C          64.0057   91.4285   10.7860 C.ar    1  UNL1       -0.0216
      8 C          63.1354   90.8352    9.7179 C.ar    1  UNL1       -0.0012
      9 C          61.9958   89.9349   10.0932 C.ar    1  UNL1        0.0394
     10 C          61.7266   89.6279   11.5366 C.ar    1  UNL1        0.1674
     11 O          60.5871   88.7276   11.9118 O.3     1  UNL1       -0.5029
     12 C          62.5969   90.2211   12.6045 C.ar    1  UNL1        0.1677
     13 O          62.5748   90.1000   14.0995 O.3     1  UNL1       -0.4733
     14 C          63.7007   90.9255   14.6481 C.3     1  UNL1        0.2007
     15 C          64.1649   91.1839   16.0508 C.3     1  UNL1        0.1724
     16 O          63.4469   90.5526   17.2067 O.3     1  UNL1       -0.3765
     17 C          65.3471   92.0736   16.2978 C.2     1  UNL1        0.0017
     18 C          66.0650   92.7048   15.1419 C.2     1  UNL1       -0.0267
     19 C          65.6008   92.4464   13.7391 C.3     1  UNL1        0.0441
     20 C          66.3187   93.0777   12.5832 C.3     1  UNL1        0.0663
     21 C          65.1969   92.3380   10.8480 C.3     1  UNL1        0.0424
     22 H          60.0434   88.3570   11.2447 H       1  UNL1        0.2923
     23 H          63.8717   90.8207   18.0366 H       1  UNL1        0.2109
@<TRIPOS>BOND
     1     1     2    1
     2     2     3    1
     3     3     4    1
     4     5     4    1
     5     5     6    1
     6     6     7   ar
     7     7     8   ar
     8     8     9   ar
     9     9    10   ar
    10    10    11    1
    11    10    12   ar
    12    12    13    1
    13    14    13    1
    14    14    15    1
    15    15    16    1
    16    15    17    1
    17    17    18    2
    18    19    18    1
    19    19    20    1
    20    20    21    1
    21    20     2    1
    22    14     5    1
    23    19     5    1
    24    12     6   ar
    25    21     7    1
    26    11    22    1
    27    16    23    1
@<TRIPOS>MOLECULE
*****
 23 27 0 0 0
SMALL
GASTEIGER

@<TRIPOS>ATOM
      1 C          60.5951   85.9787    8.1911 C.3     1  UNL1        0.0896
      2 N          61.6308   86.9827    9.8522 N.3     1  UNL1       -0.2721
      3 C          61.9444   86.5503   10.4477 C.3     1  UNL1        0.0726
      4 C          62.3210   86.9154   11.0518 C.3     1  UNL1        0.0254
      5 C          62.7135   88.0323   11.5888 C.3     1  UNL1        0.0674
      6 C          62.7533   86.5546   11.8433 C.ar    1  UNL1        0.0142
      7 C          62.2186   85.3877   11.0671 C.ar    1  UNL1       -0.0216
      8 C          62.4145   83.9921   11.5808 C.ar    1  UNL1       -0.0012
      9 C          63.1453   83.7633   12.8707 C.ar    1  UNL1        0.0394
     10 C          63.6800   84.9303   13.6468 C.ar    1  UNL1        0.1674
     11 O          64.4107   84.7015   14.9366 O.3     1  UNL1       -0.5029
     12 C          63.4841   86.3258   13.1331 C.ar    1  UNL1        0.1677
     13 O          63.8959   87.6622   13.6758 O.3     1  UNL1       -0.4733
     14 C          63.4197   88.7169   12.7214 C.3     1  UNL1        0.2007
     15 C          63.5378   90.2121   12.7373 C.3     1  UNL1        0.1724
     16 O          64.2440   90.8966   13.8699 O.3     1  UNL1       -0.3765
     17 C          62.9498   91.0228   11.6206 C.2     1  UNL1        0.0017
     18 C          62.2437   90.3383   10.4880 C.2     1  UNL1       -0.0267
     19 C          62.1255   88.8430   10.4721 C.3     1  UNL1        0.0441
     20 C          61.4194   88.1584    9.3396 C.3     1  UNL1        0.0663
     21 C          61.5761   86.0364    9.8769 C.3     1  UNL1        0.0424
     22 H          64.5332   83.8297   15.2575 H       1  UNL1        0.2923
     23 H          64.2308   91.8559   13.7265 H       1  UNL1        0.2109
@<TRIPOS>BOND
     1     1     2    1
     2     2     3    1
     3     3     4    1
     4     5     4    1
     5     5     6    1
     6     6     7   ar
     7     7     8   ar
     8     8     9   ar
     9     9    10   ar
    10    10    11    1
    11    10    12   ar
    12    12    13    1
    13    14    13    1
    14    14    15    1
    15    15    16    1
    16    15    17    1
    17    17    18    2
    18    19    18    1
    19    19    20    1
    20    20    21    1
    21    20     2    1
    22    14     5    1
    23    19     5    1
    24    12     6   ar
    25    21     7    1
    26    11    22    1
    27    16    23    1
@<TRIPOS>MOLECULE
*****
 23 27 0 0 0
SMALL
GASTEIGER

@<TRIPOS>ATOM
      1 C          63.6334   91.0646   12.6113 C.3     1  UNL1        0.0896
      2 N          62.6038   89.4750   11.4919 N.3     1  UNL1       -0.2721
      3 C          62.6952   88.7102   11.7078 C.3     1  UNL1        0.0726
      4 C          62.3208   88.1321   11.3008 C.3     1  UNL1        0.0254
      5 C          61.5273   87.8132   10.3217 C.3     1  UNL1        0.0674
      6 C          62.3180   87.1682   11.4211 C.ar    1  UNL1        0.0142
      7 C          63.2048   87.7393   12.4877 C.ar    1  UNL1       -0.0216
      8 C          63.8782   86.8280   13.4706 C.ar    1  UNL1       -0.0012
      9 C          63.6649   85.3456   13.3869 C.ar    1  UNL1        0.0394
     10 C          62.7781   84.7746   12.3203 C.ar    1  UNL1        0.1674
     11 O          62.5648   83.2922   12.2366 O.3     1  UNL1       -0.5029
     12 C          62.1047   85.6858   11.3375 C.ar    1  UNL1        0.1677
     13 O          61.1821   85.4146   10.1863 O.3     1  UNL1       -0.4733
     14 C          60.8253   86.7293    9.5585 C.3     1  UNL1        0.2007
     15 C          59.9517   87.0796    8.3905 C.3     1  UNL1        0.1724
     16 O          59.2497   85.9958    7.6273 O.3     1  UNL1       -0.3765
     17 C          59.7802   88.5138    7.9857 C.2     1  UNL1        0.0017
     18 C          60.4823   89.5976    8.7489 C.2     1  UNL1       -0.0267
     19 C          61.3558   89.2473    9.9169 C.3     1  UNL1        0.0441
     20 C          62.0579   90.3311   10.6801 C.3     1  UNL1        0.0663
     21 C          63.1473   89.2149   12.2240 C.3     1  UNL1        0.0424
     22 H          62.9855   82.7230   12.8506 H       1  UNL1        0.2923
     23 H          58.7305   86.3903    6.9092 H       1  UNL1        0.2109
@<TRIPOS>BOND
     1     1     2    1
     2     2     3    1
     3     3     4    1
     4     5     4    1
     5     5     6    1
     6     6     7   ar
     7     7     8   ar
     8     8     9   ar
     9     9    10   ar
    10    10    11    1
    11    10    12   ar
    12    12    13    1
    13    14    13    1
    14    14    15    1
    15    15    16    1
    16    15    17    1
    17    17    18    2
    18    19    18    1
    19    19    20    1
    20    20    21    1
    21    20     2    1
    22    14     5    1
    23    19     5    1
    24    12     6   ar
    25    21     7    1
    26    11    22    1
    27    16    23    1
@<TRIPOS>MOLECULE
*****
 23 27 0 0 0
SMALL
GASTEIGER

@<TRIPOS>ATOM
      1 C          64.9136   90.9711   14.9342 C.3     1  UNL1        0.0896
      2 N          63.8900   89.7326   13.4314 N.3     1  UNL1       -0.2721
      3 C          63.8873   88.9360   13.5043 C.3     1  UNL1        0.0726
      4 C          63.5151   88.4856   12.9578 C.3     1  UNL1        0.0254
      5 C          62.8199   88.4378   11.8603 C.3     1  UNL1        0.0674
      6 C          63.4132   87.5220   12.8896 C.ar    1  UNL1        0.0142
      7 C          64.2122   87.7902   14.1304 C.ar    1  UNL1       -0.0216
      8 C          64.6800   86.6479   14.9827 C.ar    1  UNL1       -0.0012
      9 C          64.3488   85.2374   14.5942 C.ar    1  UNL1        0.0394
     10 C          63.5498   84.9694   13.3533 C.ar    1  UNL1        0.1674
     11 O          63.2186   83.5589   12.9648 O.3     1  UNL1       -0.5029
     12 C          63.0820   86.1115   12.5011 C.ar    1  UNL1        0.1677
     13 O          62.2840   86.1557   11.2317 O.3     1  UNL1       -0.4733
     14 C          62.1221   87.5934   10.8357 C.3     1  UNL1        0.2007
     15 C          61.4293   88.2427    9.6745 C.3     1  UNL1        0.1724
     16 O          60.7314   87.3982    8.6499 O.3     1  UNL1       -0.3765
     17 C          61.4344   89.7365    9.5379 C.2     1  UNL1        0.0017
     18 C          62.1322   90.5809   10.5625 C.2     1  UNL1       -0.0267
     19 C          62.8250   89.9315   11.7238 C.3     1  UNL1        0.0441
     20 C          63.5229   90.7760   12.7484 C.3     1  UNL1        0.0663
     21 C          64.3167   89.2864   14.1511 C.3     1  UNL1        0.0424
     22 H          63.5108   82.8454   13.4972 H       1  UNL1        0.2923
     23 H          60.3389   87.9706    7.9722 H       1  UNL1        0.2109
@<TRIPOS>BOND
     1     1     2    1
     2     2     3    1
     3     3     4    1
     4     5     4    1
     5     5     6    1
     6     6     7   ar
     7     7     8   ar
     8     8     9   ar
     9     9    10   ar
    10    10    11    1
    11    10    12   ar
    12    12    13    1
    13    14    13    1
    14    14    15    1
    15    15    16    1
    16    15    17    1
    17    17    18    2
    18    19    18    1
    19    19    20    1
    20    20    21    1
    21    20     2    1
    22    14     5    1
    23    19     5    1
    24    12     6   ar
    25    21     7    1
    26    11    22    1
    27    16    23    1
@<TRIPOS>MOLECULE
*****
 23 27 0 0 0
SMALL
GASTEIGER

@<TRIPOS>ATOM
      1 C          66.8514   93.7093   10.9836 C.3     1  UNL1        0.0896
      2 N          65.2123   92.3670   11.5766 N.3     1  UNL1       -0.2721
      3 C          65.0943   92.1970   12.3493 C.3     1  UNL1        0.0726
      4 C          64.4982   91.7089   12.5650 C.3     1  UNL1        0.0254
      5 C          63.4987   90.9638   12.1966 C.3     1  UNL1        0.0674
      6 C          64.2146   91.3989   13.4408 C.ar    1  UNL1        0.0142
      7 C          65.3941   92.3000   13.6570 C.ar    1  UNL1       -0.0216
      8 C          65.8985   92.5549   15.0465 C.ar    1  UNL1       -0.0012
      9 C          65.2234   91.9087   16.2198 C.ar    1  UNL1        0.0394
     10 C          64.0440   91.0075   16.0035 C.ar    1  UNL1        0.1674
     11 O          63.3689   90.3613   17.1768 O.3     1  UNL1       -0.5029
     12 C          63.5396   90.7526   14.6141 C.ar    1  UNL1        0.1677
     13 O          62.4064   89.9181   14.0950 O.3     1  UNL1       -0.4733
     14 C          62.3811   90.0486   12.6009 C.3     1  UNL1        0.2007
     15 C          61.4848   89.4524   11.5563 C.3     1  UNL1        0.1724
     16 O          60.3672   88.5372   11.9607 O.3     1  UNL1       -0.3765
     17 C          61.7061   89.7713   10.1074 C.2     1  UNL1        0.0017
     18 C          62.8237   90.6864    9.7031 C.2     1  UNL1       -0.0267
     19 C          63.7200   91.2827   10.7477 C.3     1  UNL1        0.0441
     20 C          64.8376   92.1979   10.3434 C.3     1  UNL1        0.0663
     21 C          65.7577   92.7246   12.2650 C.3     1  UNL1        0.0424
     22 H          63.6840   90.5205   18.0447 H       1  UNL1        0.2923
     23 H          59.8888   88.2423   11.1701 H       1  UNL1        0.2109
@<TRIPOS>BOND
     1     1     2    1
     2     2     3    1
     3     3     4    1
     4     5     4    1
     5     5     6    1
     6     6     7   ar
     7     7     8   ar
     8     8     9   ar
     9     9    10   ar
    10    10    11    1
    11    10    12   ar
    12    12    13    1
    13    14    13    1
    14    14    15    1
    15    15    16    1
    16    15    17    1
    17    17    18    2
    18    19    18    1
    19    19    20    1
    20    20    21    1
    21    20     2    1
    22    14     5    1
    23    19     5    1
    24    12     6   ar
    25    21     7    1
    26    11    22    1
    27    16    23    1
@<TRIPOS>MOLECULE
*****
 23 27 0 0 0
SMALL
GASTEIGER

@<TRIPOS>ATOM
      1 C          63.9631   91.0653   13.3063 C.3     1  UNL1        0.0896
      2 N          63.5603   88.9292   12.9670 N.3     1  UNL1       -0.2721
      3 C          63.1193   88.7000   12.3402 C.3     1  UNL1        0.0726
      4 C          62.9728   87.9232   12.2168 C.3     1  UNL1        0.0254
      5 C          63.1393   86.6961   12.6123 C.3     1  UNL1        0.0674
      6 C          62.4667   87.4738   11.5201 C.ar    1  UNL1        0.0142
      7 C          62.3936   88.9444   11.2338 C.ar    1  UNL1       -0.0216
      8 C          61.6302   89.4393   10.0411 C.ar    1  UNL1       -0.0012
      9 C          60.9400   88.4636    9.1348 C.ar    1  UNL1        0.0394
     10 C          61.0131   86.9929    9.4212 C.ar    1  UNL1        0.1674
     11 O          60.3228   86.0172    8.5148 O.3     1  UNL1       -0.5029
     12 C          61.7764   86.4981   10.6137 C.ar    1  UNL1        0.1677
     13 O          62.0224   85.1173   11.1458 O.3     1  UNL1       -0.4733
     14 C          62.8647   85.2397   12.3809 C.3     1  UNL1        0.2007
     15 C          63.4171   84.2131   13.3248 C.3     1  UNL1        0.1724
     16 O          63.1425   82.7568   13.0934 O.3     1  UNL1       -0.3765
     17 C          64.2441   84.6430   14.5001 C.2     1  UNL1        0.0017
     18 C          64.5187   86.0993   14.7315 C.2     1  UNL1       -0.0267
     19 C          63.9663   87.1259   13.7875 C.3     1  UNL1        0.0441
     20 C          64.2409   88.5823   14.0189 C.3     1  UNL1        0.0663
     21 C          63.1944   89.5484   12.3491 C.3     1  UNL1        0.0424
     22 H          59.8460   86.3264    7.7698 H       1  UNL1        0.2923
     23 H          63.5689   82.2328   13.7895 H       1  UNL1        0.2109
@<TRIPOS>BOND
     1     1     2    1
     2     2     3    1
     3     3     4    1
     4     5     4    1
     5     5     6    1
     6     6     7   ar
     7     7     8   ar
     8     8     9   ar
     9     9    10   ar
    10    10    11    1
    11    10    12   ar
    12    12    13    1
    13    14    13    1
    14    14    15    1
    15    15    16    1
    16    15    17    1
    17    17    18    2
    18    19    18    1
    19    19    20    1
    20    20    21    1
    21    20     2    1
    22    14     5    1
    23    19     5    1
    24    12     6   ar
    25    21     7    1
    26    11    22    1
    27    16    23    1
@<TRIPOS>MOLECULE
*****
 23 27 0 0 0
SMALL
GASTEIGER

@<TRIPOS>ATOM
      1 C          63.5497   83.6973   12.9737 C.3     1  UNL1        0.0896
      2 N          62.8182   85.5317   12.0043 N.3     1  UNL1       -0.2721
      3 C          63.0010   86.2470   12.3122 C.3     1  UNL1        0.0726
      4 C          62.7350   86.9141   11.9597 C.3     1  UNL1        0.0254
      5 C          62.0534   87.4495   10.9908 C.3     1  UNL1        0.0674
      6 C          62.8579   87.8492   12.1921 C.ar    1  UNL1        0.0142
      7 C          63.5916   87.0429   13.2223 C.ar    1  UNL1       -0.0216
      8 C          64.3239   87.7343   14.3340 C.ar    1  UNL1       -0.0012
      9 C          64.3223   89.2321   14.4155 C.ar    1  UNL1        0.0394
     10 C          63.5885   90.0384   13.3852 C.ar    1  UNL1        0.1674
     11 O          63.5869   91.5362   13.4667 O.3     1  UNL1       -0.5029
     12 C          62.8563   89.3470   12.2736 C.ar    1  UNL1        0.1677
     13 O          62.0508   89.8729   11.1227 O.3     1  UNL1       -0.4733
     14 C          61.5546   88.7002   10.3299 C.3     1  UNL1        0.2007
     15 C          60.7130   88.6097    9.0916 C.3     1  UNL1        0.1724
     16 O          60.2142   89.8604    8.4306 O.3     1  UNL1       -0.3765
     17 C          60.3701   87.2683    8.5141 C.2     1  UNL1        0.0017
     18 C          60.8689   86.0176    9.1751 C.2     1  UNL1       -0.0267
     19 C          61.7106   86.1082   10.4135 C.3     1  UNL1        0.0441
     20 C          62.2094   84.8574   11.0744 C.3     1  UNL1        0.0663
     21 C          63.3473   85.6289   12.7851 C.3     1  UNL1        0.0424
     22 H          64.0443   91.9680   14.1611 H       1  UNL1        0.2923
     23 H          59.6898   89.6260    7.6490 H       1  UNL1        0.2109
@<TRIPOS>BOND
     1     1     2    1
     2     2     3    1
     3     3     4    1
     4     5     4    1
     5     5     6    1
     6     6     7   ar
     7     7     8   ar
     8     8     9   ar
     9     9    10   ar
    10    10    11    1
    11    10    12   ar
    12    12    13    1
    13    14    13    1
    14    14    15    1
    15    15    16    1
    16    15    17    1
    17    17    18    2
    18    19    18    1
    19    19    20    1
    20    20    21    1
    21    20     2    1
    22    14     5    1
    23    19     5    1
    24    12     6   ar
    25    21     7    1
    26    11    22    1
    27    16    23    1
