@<TRIPOS>MOLECULE
*****
 52 57 0 0 0
SMALL
GASTEIGER

@<TRIPOS>ATOM
      1 N          63.7823   90.9238   12.0627 N.3     1  UNL1       -0.2660
      2 C          62.9549   90.9136   10.8116 C.3     1  UNL1        0.0926
      3 C          62.1663   89.6918   10.4439 C.3     1  UNL1        0.0950
      4 N          61.3057   89.6962    9.2153 N.am    1  UNL1       -0.2706
      5 C          59.9250   89.1120    9.2647 C.2     1  UNL1        0.4020
      6 O          59.4050   88.5233   10.5427 O.2     1  UNL1       -0.2264
      7 H          61.6470   90.0826    8.3765 H       1  UNL1        0.1527
      8 O          59.0643   89.1164    8.0362 O.3     1  UNL1       -0.4291
      9 C          59.6931   89.2441    6.6804 C.3     1  UNL1        0.2447
     10 C          59.3073   90.3789    5.7786 C.ar    1  UNL1        0.0714
     11 C          57.9151   90.8869    5.5470 C.ar    1  UNL1        0.1053
     12 N          57.9933   92.0271    4.5752 N.ar    1  UNL1       -0.2350
     13 C          59.4339   92.2236    4.2063 C.ar    1  UNL1        0.1343
     14 S          60.2460   91.2051    4.9500 S.2     1  UNL1       -0.0652
     15 C          62.2384   88.4655   11.3046 C.3     1  UNL1        0.0474
     16 C          62.4753   87.1229   10.6790 C.ar    1  UNL1       -0.0205
     17 C          62.7060   87.0144    9.2009 C.ar    1  UNL1       -0.0042
     18 C          62.9429   85.6718    8.5753 C.ar    1  UNL1       -0.0003
     19 C          62.9490   84.4377    9.4279 C.ar    1  UNL1       -0.0000
     20 C          62.7184   84.5462   10.9061 C.ar    1  UNL1       -0.0003
     21 C          62.4815   85.8887   11.5316 C.ar    1  UNL1       -0.0042
     22 C          65.2507   91.2206   11.9883 C.3     1  UNL1        0.1008
     23 C          65.7207   92.5758   11.5491 C.ar    1  UNL1        0.0130
     24 C          65.7348   93.7166   12.5229 C.ar    1  UNL1        0.0959
     25 N          66.2047   95.0717   12.0838 N.ar    1  UNL1       -0.2441
     26 C          66.6605   95.2860   10.6708 C.ar    1  UNL1        0.0813
     27 C          67.1304   96.6411   10.2317 C.ar    1  UNL1        0.0191
     28 C          67.5861   96.8553    8.8188 C.ar    1  UNL1        0.0015
     29 C          67.5720   95.7145    7.8450 C.ar    1  UNL1        0.0001
     30 C          67.1021   94.3594    8.2841 C.ar    1  UNL1        0.0015
     31 C          66.6463   94.1452    9.6970 C.ar    1  UNL1        0.0174
     32 C          66.1764   92.7900   10.1362 C.ar    1  UNL1        0.0001
     33 C          63.1412   90.6370   13.3882 C.3     1  UNL1        0.0926
     34 C          63.9848   90.2088   14.5522 C.3     1  UNL1        0.0950
     35 O          62.4411   88.5697   16.5348 O.2     1  UNL1       -0.2264
     36 C          63.5436   87.9389   15.7368 C.2     1  UNL1        0.4020
     37 N          64.3154   88.7584   14.7455 N.am    1  UNL1       -0.2706
     38 H          65.0390   88.3444   14.2218 H       1  UNL1        0.1527
     39 O          63.8741   86.4887   15.9301 O.3     1  UNL1       -0.4274
     40 C          64.4137   85.6833   14.7854 C.3     1  UNL1        0.2621
     41 C          63.8522   84.3231   14.4948 C.ar    1  UNL1        0.1323
     42 N          64.4987   83.2640   13.6521 N.ar    1  UNL1       -0.2374
     43 C          63.5916   82.0695   13.6324 C.ar    1  UNL1        0.1062
     44 C          62.3845   82.3904   14.4630 C.ar    1  UNL1        0.0573
     45 S          62.5455   83.7832   14.9960 S.2     1  UNL1       -0.0666
     46 C          64.4978   91.2308   15.5230 C.3     1  UNL1        0.0474
     47 C          65.9038   91.7396   15.4033 C.ar    1  UNL1       -0.0205
     48 C          66.3213   92.9724   16.1488 C.ar    1  UNL1       -0.0042
     49 C          67.7273   93.4811   16.0291 C.ar    1  UNL1       -0.0003
     50 C          68.7158   92.7570   15.1639 C.ar    1  UNL1       -0.0000
     51 C          68.2983   91.5242   14.4184 C.ar    1  UNL1       -0.0003
     52 C          66.8923   91.0154   14.5381 C.ar    1  UNL1       -0.0042
@<TRIPOS>BOND
     1    35    36    2
     2    36    37   am
     3    37    34    1
     4    34    46    1
     5    46    47    1
     6    47    48   ar
     7    48    49   ar
     8    49    50   ar
     9    50    51   ar
    10    51    52   ar
    11    34    33    1
    12    33     1    1
    13     1    22    1
    14    22    23    1
    15    23    24   ar
    16    24    25   ar
    17    25    26   ar
    18    26    27   ar
    19    27    28   ar
    20    28    29   ar
    21    29    30   ar
    22    30    31   ar
    23    31    32   ar
    24     1     2    1
    25     3     2    1
    26     3    15    1
    27    15    16    1
    28    16    17   ar
    29    17    18   ar
    30    18    19   ar
    31    19    20   ar
    32    20    21   ar
    33     3     4    1
    34     4     5   am
    35     5     6    2
    36     5     8    1
    37     8     9    1
    38     9    10    1
    39    10    11   ar
    40    11    12   ar
    41    12    13   ar
    42    13    14   ar
    43    36    39    1
    44    39    40    1
    45    40    41    1
    46    41    42   ar
    47    42    43   ar
    48    43    44   ar
    49    44    45   ar
    50    52    47   ar
    51    32    23   ar
    52    21    16   ar
    53    14    10   ar
    54    45    41   ar
    55    31    26   ar
    56    37    38    1
    57     4     7    1
@<TRIPOS>MOLECULE
*****
 52 57 0 0 0
SMALL
GASTEIGER

@<TRIPOS>ATOM
      1 N          61.6937   88.1687   11.8465 N.3     1  UNL1       -0.2660
      2 C          62.0418   89.2360   12.8412 C.3     1  UNL1        0.0926
      3 C          63.3984   89.8753   12.8114 C.3     1  UNL1        0.0950
      4 N          63.7726   90.7885   11.6816 N.am    1  UNL1       -0.2706
      5 C          64.5695   92.0299   11.9532 C.2     1  UNL1        0.4020
      6 O          64.9923   92.3581   13.3546 O.2     1  UNL1       -0.2264
      7 H          63.4951   90.5730   10.7620 H       1  UNL1        0.1527
      8 O          64.9437   92.9431   10.8236 O.3     1  UNL1       -0.4291
      9 C          66.3880   93.2310   10.5389 C.3     1  UNL1        0.2447
     10 C          66.7765   94.5027    9.8447 C.ar    1  UNL1        0.0714
     11 C          67.6530   94.6131    8.6324 C.ar    1  UNL1        0.1053
     12 N          67.7749   96.0659    8.2793 N.ar    1  UNL1       -0.2350
     13 C          66.9738   96.8533    9.2735 C.ar    1  UNL1        0.1343
     14 S          66.3567   95.8872   10.2409 S.2     1  UNL1       -0.0652
     15 C          64.3810   89.6013   13.9112 C.3     1  UNL1        0.0474
     16 C          64.0650   88.5781   14.9615 C.ar    1  UNL1       -0.0205
     17 C          64.5782   87.1756   14.8207 C.ar    1  UNL1       -0.0042
     18 C          64.2622   86.1525   15.8710 C.ar    1  UNL1       -0.0003
     19 C          63.4330   86.5317   17.0621 C.ar    1  UNL1       -0.0000
     20 C          62.9199   87.9341   17.2029 C.ar    1  UNL1       -0.0003
     21 C          63.2359   88.9573   16.1526 C.ar    1  UNL1       -0.0042
     22 C          62.6868   87.0921   11.5231 C.3     1  UNL1        0.1008
     23 C          62.5596   85.7390   12.1581 C.ar    1  UNL1        0.0130
     24 C          62.0976   85.6183   13.5801 C.ar    1  UNL1        0.0959
     25 N          61.9704   84.2653   14.2150 N.ar    1  UNL1       -0.2441
     26 C          62.3051   83.0329   13.4280 C.ar    1  UNL1        0.0813
     27 C          62.1779   81.6800   14.0629 C.ar    1  UNL1        0.0191
     28 C          62.5126   80.4477   13.2759 C.ar    1  UNL1        0.0015
     29 C          62.9746   80.5684   11.8539 C.ar    1  UNL1        0.0001
     30 C          63.1018   81.9214   11.2190 C.ar    1  UNL1        0.0015
     31 C          62.7671   83.1537   12.0060 C.ar    1  UNL1        0.0174
     32 C          62.8943   84.5068   11.3711 C.ar    1  UNL1        0.0001
     33 C          60.3523   88.1778   11.1752 C.3     1  UNL1        0.0926
     34 C          60.2584   88.0345    9.6850 C.3     1  UNL1        0.0950
     35 O          58.6740   88.4585    7.1731 O.2     1  UNL1       -0.2264
     36 C          59.7655   89.4189    7.5424 C.2     1  UNL1        0.4020
     37 N          60.5577   89.2069    8.7984 N.am    1  UNL1       -0.2706
     38 H          61.2741   89.8372    9.0409 H       1  UNL1        0.1527
     39 O          60.0647   90.5912    6.6559 O.3     1  UNL1       -0.4274
     40 C          59.2684   90.8067    5.4031 C.3     1  UNL1        0.2621
     41 C          59.8291   91.6450    4.2928 C.ar    1  UNL1        0.1323
     42 N          59.0463   92.5550    3.3934 N.ar    1  UNL1       -0.2374
     43 C          60.0045   93.1928    2.4317 C.ar    1  UNL1        0.1062
     44 C          61.3797   92.6771    2.7367 C.ar    1  UNL1        0.0573
     45 S          61.2712   91.7205    3.8870 S.2     1  UNL1       -0.0666
     46 C          59.8654   86.7188    9.0814 C.3     1  UNL1        0.0474
     47 C          60.8396   85.9656    8.2248 C.ar    1  UNL1       -0.0205
     48 C          60.3577   85.2322    7.0082 C.ar    1  UNL1       -0.0042
     49 C          61.3319   84.4792    6.1517 C.ar    1  UNL1       -0.0003
     50 C          62.7880   84.4594    6.5117 C.ar    1  UNL1       -0.0000
     51 C          63.2698   85.1928    7.7282 C.ar    1  UNL1       -0.0003
     52 C          62.2956   85.9459    8.5847 C.ar    1  UNL1       -0.0042
@<TRIPOS>BOND
     1    35    36    2
     2    36    37   am
     3    37    34    1
     4    34    46    1
     5    46    47    1
     6    47    48   ar
     7    48    49   ar
     8    49    50   ar
     9    50    51   ar
    10    51    52   ar
    11    34    33    1
    12    33     1    1
    13     1    22    1
    14    22    23    1
    15    23    24   ar
    16    24    25   ar
    17    25    26   ar
    18    26    27   ar
    19    27    28   ar
    20    28    29   ar
    21    29    30   ar
    22    30    31   ar
    23    31    32   ar
    24     1     2    1
    25     3     2    1
    26     3    15    1
    27    15    16    1
    28    16    17   ar
    29    17    18   ar
    30    18    19   ar
    31    19    20   ar
    32    20    21   ar
    33     3     4    1
    34     4     5   am
    35     5     6    2
    36     5     8    1
    37     8     9    1
    38     9    10    1
    39    10    11   ar
    40    11    12   ar
    41    12    13   ar
    42    13    14   ar
    43    36    39    1
    44    39    40    1
    45    40    41    1
    46    41    42   ar
    47    42    43   ar
    48    43    44   ar
    49    44    45   ar
    50    52    47   ar
    51    32    23   ar
    52    21    16   ar
    53    14    10   ar
    54    45    41   ar
    55    31    26   ar
    56    37    38    1
    57     4     7    1
@<TRIPOS>MOLECULE
*****
 52 57 0 0 0
SMALL
GASTEIGER

@<TRIPOS>ATOM
      1 N          62.5616   88.1768   12.3667 N.3     1  UNL1       -0.2660
      2 C          63.8368   87.7456   13.0284 C.3     1  UNL1        0.0926
      3 C          64.2051   88.2931   14.3754 C.3     1  UNL1        0.0950
      4 N          64.5616   89.7426   14.5239 N.am    1  UNL1       -0.2706
      5 C          63.8398   90.5936   15.5264 C.2     1  UNL1        0.4020
      6 O          62.7615   89.9950   16.3803 O.2     1  UNL1       -0.2264
      7 H          65.2693   90.1354   13.9635 H       1  UNL1        0.1527
      8 O          64.1962   92.0430   15.6749 O.3     1  UNL1       -0.4291
      9 C          65.4655   92.4357   16.3712 C.3     1  UNL1        0.2447
     10 C          66.7570   92.4764   15.6095 C.ar    1  UNL1        0.0714
     11 C          66.9461   92.0885   14.1729 C.ar    1  UNL1        0.1053
     12 N          68.3923   92.2846   13.8263 N.ar    1  UNL1       -0.2350
     13 C          69.0970   92.7938   15.0486 C.ar    1  UNL1        0.1343
     14 S          68.0864   92.9124   16.1507 S.2     1  UNL1       -0.0652
     15 C          64.2170   87.3913   15.5740 C.3     1  UNL1        0.0474
     16 C          64.0502   85.9107   15.4002 C.ar    1  UNL1       -0.0205
     17 C          65.1083   85.1144   14.6957 C.ar    1  UNL1       -0.0042
     18 C          64.9415   83.6338   14.5219 C.ar    1  UNL1       -0.0003
     19 C          63.7167   82.9497   15.0527 C.ar    1  UNL1       -0.0000
     20 C          62.6586   83.7460   15.7571 C.ar    1  UNL1       -0.0003
     21 C          62.8254   85.2265   15.9309 C.ar    1  UNL1       -0.0042
     22 C          61.6430   87.1525   11.7692 C.3     1  UNL1        0.1008
     23 C          62.1840   85.8226   11.3346 C.ar    1  UNL1        0.0130
     24 C          62.9442   85.7067   10.0467 C.ar    1  UNL1        0.0959
     25 N          63.4852   84.3769    9.6121 N.ar    1  UNL1       -0.2441
     26 C          63.2659   83.1629   10.4654 C.ar    1  UNL1        0.0813
     27 C          63.8069   81.8331   10.0308 C.ar    1  UNL1        0.0191
     28 C          63.5877   80.6191   10.8841 C.ar    1  UNL1        0.0015
     29 C          62.8275   80.7349   12.1720 C.ar    1  UNL1        0.0001
     30 C          62.2865   82.0647   12.6066 C.ar    1  UNL1        0.0015
     31 C          62.5057   83.2787   11.7533 C.ar    1  UNL1        0.0174
     32 C          61.9648   84.6086   12.1879 C.ar    1  UNL1        0.0001
     33 C          62.2049   89.6324   12.3025 C.3     1  UNL1        0.0926
     34 C          61.9638   90.2876   10.9749 C.3     1  UNL1        0.0950
     35 O          64.0575   91.9168   12.3755 O.2     1  UNL1       -0.2264
     36 C          64.1617   91.6709   10.8994 C.2     1  UNL1        0.4020
     37 N          63.1148   90.8564   10.1991 N.am    1  UNL1       -0.2706
     38 H          63.1831   90.6950    9.2303 H       1  UNL1        0.1527
     39 O          65.3126   92.2397   10.1238 O.3     1  UNL1       -0.4274
     40 C          66.3426   93.0805   10.8182 C.3     1  UNL1        0.2621
     41 C          66.6779   94.4438   10.2901 C.ar    1  UNL1        0.1323
     42 N          66.3094   95.7511   10.9267 N.ar    1  UNL1       -0.2374
     43 C          66.8444   96.8545   10.0627 C.ar    1  UNL1        0.1062
     44 C          67.5436   96.2291    8.8922 C.ar    1  UNL1        0.0573
     45 S          67.4407   94.7393    9.0328 S.2     1  UNL1       -0.0666
     46 C          60.5717   90.3741   10.4230 C.3     1  UNL1        0.0474
     47 C          60.1063   89.3782    9.4023 C.ar    1  UNL1       -0.0205
     48 C          59.8625   87.9531    9.8017 C.ar    1  UNL1       -0.0042
     49 C          59.3972   86.9573    8.7811 C.ar    1  UNL1       -0.0003
     50 C          59.1755   87.3866    7.3610 C.ar    1  UNL1       -0.0000
     51 C          59.4193   88.8117    6.9616 C.ar    1  UNL1       -0.0003
     52 C          59.8847   89.8075    7.9823 C.ar    1  UNL1       -0.0042
@<TRIPOS>BOND
     1    35    36    2
     2    36    37   am
     3    37    34    1
     4    34    46    1
     5    46    47    1
     6    47    48   ar
     7    48    49   ar
     8    49    50   ar
     9    50    51   ar
    10    51    52   ar
    11    34    33    1
    12    33     1    1
    13     1    22    1
    14    22    23    1
    15    23    24   ar
    16    24    25   ar
    17    25    26   ar
    18    26    27   ar
    19    27    28   ar
    20    28    29   ar
    21    29    30   ar
    22    30    31   ar
    23    31    32   ar
    24     1     2    1
    25     3     2    1
    26     3    15    1
    27    15    16    1
    28    16    17   ar
    29    17    18   ar
    30    18    19   ar
    31    19    20   ar
    32    20    21   ar
    33     3     4    1
    34     4     5   am
    35     5     6    2
    36     5     8    1
    37     8     9    1
    38     9    10    1
    39    10    11   ar
    40    11    12   ar
    41    12    13   ar
    42    13    14   ar
    43    36    39    1
    44    39    40    1
    45    40    41    1
    46    41    42   ar
    47    42    43   ar
    48    43    44   ar
    49    44    45   ar
    50    52    47   ar
    51    32    23   ar
    52    21    16   ar
    53    14    10   ar
    54    45    41   ar
    55    31    26   ar
    56    37    38    1
    57     4     7    1
@<TRIPOS>MOLECULE
*****
 52 57 0 0 0
SMALL
GASTEIGER

@<TRIPOS>ATOM
      1 N          61.6636   88.5303   11.9151 N.3     1  UNL1       -0.2660
      2 C          61.7448   89.7195   12.8257 C.3     1  UNL1        0.0926
      3 C          63.0664   90.3831   13.0764 C.3     1  UNL1        0.0950
      4 N          63.4652   91.5868   12.2750 N.am    1  UNL1       -0.2706
      5 C          63.6608   91.4696   10.7924 C.2     1  UNL1        0.4020
      6 O          63.4575   90.1487   10.1112 O.2     1  UNL1       -0.2264
      7 H          63.5987   92.4537   12.7221 H       1  UNL1        0.1527
      8 O          64.0596   92.6732    9.9911 O.3     1  UNL1       -0.4291
      9 C          65.0820   93.6288   10.5312 C.3     1  UNL1        0.2447
     10 C          66.5208   93.4937   10.1295 C.ar    1  UNL1        0.0714
     11 C          67.3992   94.5947    9.6135 C.ar    1  UNL1        0.1053
     12 N          68.7553   94.0154    9.3383 N.ar    1  UNL1       -0.2350
     13 C          68.7149   92.5563    9.6842 C.ar    1  UNL1        0.1343
     14 S          67.3340   92.2339   10.1731 S.2     1  UNL1       -0.0652
     15 C          63.9892   89.8432   14.1285 C.3     1  UNL1        0.0474
     16 C          64.9313   90.7650   14.8445 C.ar    1  UNL1       -0.0205
     17 C          66.3571   90.8792   14.3928 C.ar    1  UNL1       -0.0042
     18 C          67.2991   91.8010   15.1088 C.ar    1  UNL1       -0.0003
     19 C          66.8154   92.6086   16.2766 C.ar    1  UNL1       -0.0000
     20 C          65.3897   92.4944   16.7284 C.ar    1  UNL1       -0.0003
     21 C          64.4476   91.5726   16.0123 C.ar    1  UNL1       -0.0042
     22 C          62.8876   87.7057   11.6473 C.3     1  UNL1        0.1008
     23 C          63.0769   86.3941   12.3502 C.ar    1  UNL1        0.0130
     24 C          63.6390   86.3625   13.7405 C.ar    1  UNL1        0.0959
     25 N          63.8283   85.0510   14.4434 N.ar    1  UNL1       -0.2441
     26 C          63.4554   83.7710   13.7560 C.ar    1  UNL1        0.0813
     27 C          63.6447   82.4595   14.4588 C.ar    1  UNL1        0.0191
     28 C          63.2718   81.1795   13.7714 C.ar    1  UNL1        0.0015
     29 C          62.7097   81.2111   12.3811 C.ar    1  UNL1        0.0001
     30 C          62.5204   82.5226   11.6782 C.ar    1  UNL1        0.0015
     31 C          62.8933   83.8025   12.3656 C.ar    1  UNL1        0.0174
     32 C          62.7040   85.1141   11.6627 C.ar    1  UNL1        0.0001
     33 C          60.3582   88.1656   11.2723 C.3     1  UNL1        0.0926
     34 C          60.2755   88.0010    9.7836 C.3     1  UNL1        0.0950
     35 O          58.6652   88.4146    7.2864 O.2     1  UNL1       -0.2264
     36 C          59.7683   89.3697    7.6343 C.2     1  UNL1        0.4020
     37 N          60.5735   89.1629    8.8829 N.am    1  UNL1       -0.2706
     38 H          61.2975   89.7897    9.1112 H       1  UNL1        0.1527
     39 O          60.0663   90.5315    6.7335 O.3     1  UNL1       -0.4274
     40 C          59.2819   90.7207    5.4690 C.3     1  UNL1        0.2621
     41 C          59.8244   91.5888    4.3727 C.ar    1  UNL1        0.1323
     42 N          59.0362   92.5620    3.5471 N.ar    1  UNL1       -0.2374
     43 C          59.9749   93.2109    2.5736 C.ar    1  UNL1        0.1062
     44 C          61.3434   92.6388    2.7976 C.ar    1  UNL1        0.0573
     45 S          61.2503   91.6363    3.9095 S.2     1  UNL1       -0.0666
     46 C          59.8947   86.6746    9.1957 C.3     1  UNL1        0.0474
     47 C          60.8622   85.9380    8.3174 C.ar    1  UNL1       -0.0205
     48 C          60.3843   85.2951    7.0492 C.ar    1  UNL1       -0.0042
     49 C          61.3518   84.5586    6.1710 C.ar    1  UNL1       -0.0003
     50 C          62.7972   84.4649    6.5609 C.ar    1  UNL1       -0.0000
     51 C          63.2751   85.1078    7.8290 C.ar    1  UNL1       -0.0003
     52 C          62.3076   85.8444    8.7073 C.ar    1  UNL1       -0.0042
@<TRIPOS>BOND
     1    35    36    2
     2    36    37   am
     3    37    34    1
     4    34    46    1
     5    46    47    1
     6    47    48   ar
     7    48    49   ar
     8    49    50   ar
     9    50    51   ar
    10    51    52   ar
    11    34    33    1
    12    33     1    1
    13     1    22    1
    14    22    23    1
    15    23    24   ar
    16    24    25   ar
    17    25    26   ar
    18    26    27   ar
    19    27    28   ar
    20    28    29   ar
    21    29    30   ar
    22    30    31   ar
    23    31    32   ar
    24     1     2    1
    25     3     2    1
    26     3    15    1
    27    15    16    1
    28    16    17   ar
    29    17    18   ar
    30    18    19   ar
    31    19    20   ar
    32    20    21   ar
    33     3     4    1
    34     4     5   am
    35     5     6    2
    36     5     8    1
    37     8     9    1
    38     9    10    1
    39    10    11   ar
    40    11    12   ar
    41    12    13   ar
    42    13    14   ar
    43    36    39    1
    44    39    40    1
    45    40    41    1
    46    41    42   ar
    47    42    43   ar
    48    43    44   ar
    49    44    45   ar
    50    52    47   ar
    51    32    23   ar
    52    21    16   ar
    53    14    10   ar
    54    45    41   ar
    55    31    26   ar
    56    37    38    1
    57     4     7    1
@<TRIPOS>MOLECULE
*****
 52 57 0 0 0
SMALL
GASTEIGER

@<TRIPOS>ATOM
      1 N          63.6926   90.2615   12.2377 N.3     1  UNL1       -0.2660
      2 C          62.9867   89.6457   11.0661 C.3     1  UNL1        0.0926
      3 C          61.9258   88.6093   11.2899 C.3     1  UNL1        0.0950
      4 N          62.2833   87.2922   11.9125 N.am    1  UNL1       -0.2706
      5 C          62.6304   86.1209   11.0421 C.2     1  UNL1        0.4020
      6 O          62.6199   86.2667    9.5492 O.2     1  UNL1       -0.2264
      7 H          62.2902   87.1965   12.8923 H       1  UNL1        0.1527
      8 O          62.9879   84.8038   11.6645 O.3     1  UNL1       -0.4291
      9 C          63.1679   83.5905   10.8011 C.3     1  UNL1        0.2447
     10 C          62.9454   82.2224   11.3744 C.ar    1  UNL1        0.0714
     11 C          63.2050   80.9207   10.6757 C.ar    1  UNL1        0.1053
     12 N          62.8442   79.8094   11.6166 N.ar    1  UNL1       -0.2350
     13 C          62.3616   80.4245   12.8968 C.ar    1  UNL1        0.1343
     14 S          62.4242   81.9156   12.7472 S.2     1  UNL1       -0.0652
     15 C          60.5072   88.8899   10.8913 C.3     1  UNL1        0.0474
     16 C          60.0298   88.5306    9.5154 C.ar    1  UNL1       -0.0205
     17 C          59.5669   87.1341    9.2231 C.ar    1  UNL1       -0.0042
     18 C          59.0895   86.7748    7.8472 C.ar    1  UNL1       -0.0003
     19 C          59.0749   87.8120    6.7637 C.ar    1  UNL1       -0.0000
     20 C          59.5378   89.2085    7.0561 C.ar    1  UNL1       -0.0003
     21 C          60.0152   89.5678    8.4319 C.ar    1  UNL1       -0.0042
     22 C          63.8643   91.7498   12.3122 C.3     1  UNL1        0.1008
     23 C          64.8961   92.4292   11.4613 C.ar    1  UNL1        0.0130
     24 C          66.0450   91.6423   10.9039 C.ar    1  UNL1        0.0959
     25 N          67.0767   92.3217   10.0530 N.ar    1  UNL1       -0.2441
     26 C          66.9595   93.7881    9.7595 C.ar    1  UNL1        0.0813
     27 C          67.9912   94.4674    8.9087 C.ar    1  UNL1        0.0191
     28 C          67.8739   95.9337    8.6152 C.ar    1  UNL1        0.0015
     29 C          66.7249   96.7207    9.1726 C.ar    1  UNL1        0.0001
     30 C          65.6933   96.0413   10.0234 C.ar    1  UNL1        0.0015
     31 C          65.8105   94.5750   10.3169 C.ar    1  UNL1        0.0174
     32 C          64.7788   93.8955   11.1678 C.ar    1  UNL1        0.0001
     33 C          64.2267   89.3890   13.3348 C.3     1  UNL1        0.0926
     34 C          64.4225   89.9508   14.7117 C.3     1  UNL1        0.0950
     35 O          61.7666   89.4584   16.0170 O.2     1  UNL1       -0.2264
     36 C          63.0024   88.8054   16.5614 C.2     1  UNL1        0.4020
     37 N          64.3304   89.0516   15.9088 N.am    1  UNL1       -0.2706
     38 H          65.1415   88.6229   16.2661 H       1  UNL1        0.1527
     39 O          62.9102   87.9061   17.7584 O.3     1  UNL1       -0.4274
     40 C          62.6173   86.4460   17.5788 C.3     1  UNL1        0.2621
     41 C          63.2360   85.6916   16.4395 C.ar    1  UNL1        0.1323
     42 N          64.5142   86.0452   15.7387 N.ar    1  UNL1       -0.2374
     43 C          64.7533   85.0232   14.6671 C.ar    1  UNL1        0.1062
     44 C          63.6230   84.0379   14.7056 C.ar    1  UNL1        0.0573
     45 S          62.6852   84.4510   15.8011 S.2     1  UNL1       -0.0666
     46 C          64.7104   91.4119   14.8916 C.3     1  UNL1        0.0474
     47 C          66.1271   91.8862   15.0259 C.ar    1  UNL1       -0.0205
     48 C          67.1521   91.4852   14.0068 C.ar    1  UNL1       -0.0042
     49 C          68.5687   91.9595   14.1411 C.ar    1  UNL1       -0.0003
     50 C          68.9604   92.8348   15.2946 C.ar    1  UNL1       -0.0000
     51 C          67.9355   93.2358   16.3137 C.ar    1  UNL1       -0.0003
     52 C          66.5188   92.7615   16.1794 C.ar    1  UNL1       -0.0042
@<TRIPOS>BOND
     1    35    36    2
     2    36    37   am
     3    37    34    1
     4    34    46    1
     5    46    47    1
     6    47    48   ar
     7    48    49   ar
     8    49    50   ar
     9    50    51   ar
    10    51    52   ar
    11    34    33    1
    12    33     1    1
    13     1    22    1
    14    22    23    1
    15    23    24   ar
    16    24    25   ar
    17    25    26   ar
    18    26    27   ar
    19    27    28   ar
    20    28    29   ar
    21    29    30   ar
    22    30    31   ar
    23    31    32   ar
    24     1     2    1
    25     3     2    1
    26     3    15    1
    27    15    16    1
    28    16    17   ar
    29    17    18   ar
    30    18    19   ar
    31    19    20   ar
    32    20    21   ar
    33     3     4    1
    34     4     5   am
    35     5     6    2
    36     5     8    1
    37     8     9    1
    38     9    10    1
    39    10    11   ar
    40    11    12   ar
    41    12    13   ar
    42    13    14   ar
    43    36    39    1
    44    39    40    1
    45    40    41    1
    46    41    42   ar
    47    42    43   ar
    48    43    44   ar
    49    44    45   ar
    50    52    47   ar
    51    32    23   ar
    52    21    16   ar
    53    14    10   ar
    54    45    41   ar
    55    31    26   ar
    56    37    38    1
    57     4     7    1
@<TRIPOS>MOLECULE
*****
 52 57 0 0 0
SMALL
GASTEIGER

@<TRIPOS>ATOM
      1 N          62.6365   89.7611   10.7049 N.3     1  UNL1       -0.2660
      2 C          62.4107   88.8870    9.5071 C.3     1  UNL1        0.0926
      3 C          61.0185   88.6573    8.9980 C.3     1  UNL1        0.0950
      4 N          60.1980   89.8144    8.5101 N.am    1  UNL1       -0.2706
      5 C          59.5323   89.7483    7.1675 C.2     1  UNL1        0.4020
      6 O          59.6871   88.5253    6.3129 O.2     1  UNL1       -0.2264
      7 H          60.0963   90.6171    9.0710 H       1  UNL1        0.1527
      8 O          58.7117   90.9053    6.6795 O.3     1  UNL1       -0.4291
      9 C          58.5437   91.1375    5.2071 C.3     1  UNL1        0.2447
     10 C          59.6906   91.6615    4.3948 C.ar    1  UNL1        0.0714
     11 C          61.1297   91.2648    4.5426 C.ar    1  UNL1        0.1053
     12 N          61.9284   92.0323    3.5311 N.ar    1  UNL1       -0.2350
     13 C          60.9829   92.9034    2.7582 C.ar    1  UNL1        0.1343
     14 S          59.6000   92.6742    3.2919 S.2     1  UNL1       -0.0652
     15 C          60.4469   87.2707    8.9770 C.3     1  UNL1        0.0474
     16 C          61.0807   86.2110    8.1252 C.ar    1  UNL1       -0.0205
     17 C          62.5278   85.8640    8.3129 C.ar    1  UNL1       -0.0042
     18 C          63.1616   84.8044    7.4611 C.ar    1  UNL1       -0.0003
     19 C          62.3482   84.0918    6.4216 C.ar    1  UNL1       -0.0000
     20 C          60.9010   84.4388    6.2339 C.ar    1  UNL1       -0.0003
     21 C          60.2673   85.4984    7.0857 C.ar    1  UNL1       -0.0042
     22 C          63.1656   91.1535   10.5282 C.3     1  UNL1        0.1008
     23 C          64.2780   91.6499   11.4036 C.ar    1  UNL1        0.0130
     24 C          65.4814   92.3019   10.7899 C.ar    1  UNL1        0.0959
     25 N          66.5938   92.7982   11.6652 N.ar    1  UNL1       -0.2441
     26 C          66.5028   92.6426   13.1544 C.ar    1  UNL1        0.0813
     27 C          67.6151   93.1389   14.0297 C.ar    1  UNL1        0.0191
     28 C          67.5241   92.9833   15.5188 C.ar    1  UNL1        0.0015
     29 C          66.3206   92.3313   16.1326 C.ar    1  UNL1        0.0001
     30 C          65.2083   91.8350   15.2572 C.ar    1  UNL1        0.0015
     31 C          65.2993   91.9906   13.7681 C.ar    1  UNL1        0.0174
     32 C          64.1869   91.4943   12.8927 C.ar    1  UNL1        0.0001
     33 C          62.3333   89.2428   12.0795 C.3     1  UNL1        0.0926
     34 C          63.2155   88.2000   12.6994 C.3     1  UNL1        0.0950
     35 O          60.6872   86.7431   12.0030 O.2     1  UNL1       -0.2264
     36 C          62.0179   86.0958   11.7570 C.2     1  UNL1        0.4020
     37 N          63.2820   86.8243   12.1052 N.am    1  UNL1       -0.2706
     38 H          64.1554   86.3995   11.9437 H       1  UNL1        0.1527
     39 O          62.0843   84.7201   11.1628 O.3     1  UNL1       -0.4274
     40 C          63.1748   83.7766   11.5759 C.3     1  UNL1        0.2621
     41 C          62.8420   82.5451   12.3648 C.ar    1  UNL1        0.1323
     42 N          62.8519   81.1372   11.8475 N.ar    1  UNL1       -0.2374
     43 C          62.4569   80.2271   12.9725 C.ar    1  UNL1        0.1062
     44 C          62.2028   81.0726   14.1853 C.ar    1  UNL1        0.0573
     45 S          62.4408   82.5051   13.8097 S.2     1  UNL1       -0.0666
     46 C          64.0313   88.5329   13.9133 C.3     1  UNL1        0.0474
     47 C          63.7157   87.8861   15.2295 C.ar    1  UNL1       -0.0205
     48 C          63.8899   86.4059   15.3987 C.ar    1  UNL1       -0.0042
     49 C          63.5744   85.7593   16.7148 C.ar    1  UNL1       -0.0003
     50 C          63.0845   86.5927   17.8617 C.ar    1  UNL1       -0.0000
     51 C          62.9102   88.0729   17.6925 C.ar    1  UNL1       -0.0003
     52 C          63.2258   88.7196   16.3764 C.ar    1  UNL1       -0.0042
@<TRIPOS>BOND
     1    35    36    2
     2    36    37   am
     3    37    34    1
     4    34    46    1
     5    46    47    1
     6    47    48   ar
     7    48    49   ar
     8    49    50   ar
     9    50    51   ar
    10    51    52   ar
    11    34    33    1
    12    33     1    1
    13     1    22    1
    14    22    23    1
    15    23    24   ar
    16    24    25   ar
    17    25    26   ar
    18    26    27   ar
    19    27    28   ar
    20    28    29   ar
    21    29    30   ar
    22    30    31   ar
    23    31    32   ar
    24     1     2    1
    25     3     2    1
    26     3    15    1
    27    15    16    1
    28    16    17   ar
    29    17    18   ar
    30    18    19   ar
    31    19    20   ar
    32    20    21   ar
    33     3     4    1
    34     4     5   am
    35     5     6    2
    36     5     8    1
    37     8     9    1
    38     9    10    1
    39    10    11   ar
    40    11    12   ar
    41    12    13   ar
    42    13    14   ar
    43    36    39    1
    44    39    40    1
    45    40    41    1
    46    41    42   ar
    47    42    43   ar
    48    43    44   ar
    49    44    45   ar
    50    52    47   ar
    51    32    23   ar
    52    21    16   ar
    53    14    10   ar
    54    45    41   ar
    55    31    26   ar
    56    37    38    1
    57     4     7    1
@<TRIPOS>MOLECULE
*****
 52 57 0 0 0
SMALL
GASTEIGER

@<TRIPOS>ATOM
      1 N          61.7515   89.1284   11.1054 N.3     1  UNL1       -0.2660
      2 C          63.1489   89.5950   11.3872 C.3     1  UNL1        0.0926
      3 C          63.4105   91.0413   11.6866 C.3     1  UNL1        0.0950
      4 N          63.3031   91.5471   13.0948 N.am    1  UNL1       -0.2706
      5 C          64.0829   90.8840   14.1913 C.2     1  UNL1        0.4020
      6 O          64.9700   89.7152   13.8796 O.2     1  UNL1       -0.2264
      7 H          62.7209   92.3142   13.2993 H       1  UNL1        0.1527
      8 O          63.9756   91.3897   15.5993 O.3     1  UNL1       -0.4291
      9 C          64.9928   92.3568   16.1285 C.3     1  UNL1        0.2447
     10 C          66.3126   92.5125   15.4330 C.ar    1  UNL1        0.0714
     11 C          66.5118   92.8529   13.9858 C.ar    1  UNL1        0.1053
     12 N          67.9874   92.9059   13.7209 N.ar    1  UNL1       -0.2350
     13 C          68.7001   92.5982   15.0045 C.ar    1  UNL1        0.1343
     14 S          67.6650   92.3551   16.0626 S.2     1  UNL1       -0.0652
     15 C          63.7795   91.9820   10.5780 C.3     1  UNL1        0.0474
     16 C          65.1698   92.5395   10.4990 C.ar    1  UNL1       -0.0205
     17 C          65.3828   94.0242   10.4836 C.ar    1  UNL1       -0.0042
     18 C          66.7731   94.5817   10.4046 C.ar    1  UNL1       -0.0003
     19 C          67.9504   93.6544   10.3411 C.ar    1  UNL1       -0.0000
     20 C          67.7375   92.1697   10.3565 C.ar    1  UNL1       -0.0003
     21 C          66.3472   91.6123   10.4355 C.ar    1  UNL1       -0.0042
     22 C          61.1752   87.9778   11.8762 C.3     1  UNL1        0.1008
     23 C          62.0473   86.8181   12.2566 C.ar    1  UNL1        0.0130
     24 C          63.0828   86.9788   13.3300 C.ar    1  UNL1        0.0959
     25 N          63.9548   85.8192   13.7104 N.ar    1  UNL1       -0.2441
     26 C          63.7915   84.4988   13.0175 C.ar    1  UNL1        0.0813
     27 C          64.6635   83.3392   13.3980 C.ar    1  UNL1        0.0191
     28 C          64.5002   82.0190   12.7051 C.ar    1  UNL1        0.0015
     29 C          63.4647   81.8583   11.6317 C.ar    1  UNL1        0.0001
     30 C          62.5927   83.0179   11.2513 C.ar    1  UNL1        0.0015
     31 C          62.7560   84.3382   11.9442 C.ar    1  UNL1        0.0174
     32 C          61.8840   85.4978   11.5638 C.ar    1  UNL1        0.0001
     33 C          60.9303   89.8123   10.0528 C.3     1  UNL1        0.0926
     34 C          60.4460   89.0411    8.8608 C.3     1  UNL1        0.0950
     35 O          58.0919   88.4264    7.1057 O.2     1  UNL1       -0.2264
     36 C          59.1243   89.4174    6.6559 C.2     1  UNL1        0.4020
     37 N          60.3013   89.7248    7.5335 N.am    1  UNL1       -0.2706
     38 H          60.9789   90.3751    7.2383 H       1  UNL1        0.1527
     39 O          58.9796   90.1010    5.3286 O.3     1  UNL1       -0.4274
     40 C          59.3373   91.5510    5.1888 C.3     1  UNL1        0.2621
     41 C          60.3221   91.9831    4.1432 C.ar    1  UNL1        0.1323
     42 N          61.7619   91.5702    4.0638 N.ar    1  UNL1       -0.2374
     43 C          62.3696   92.2359    2.8649 C.ar    1  UNL1        0.1062
     44 C          61.3054   93.0603    2.2032 C.ar    1  UNL1        0.0573
     45 S          60.0399   92.9040    2.9932 S.2     1  UNL1       -0.0666
     46 C          60.1064   87.5864    8.9961 C.3     1  UNL1        0.0474
     47 C          60.9568   86.5517    8.3206 C.ar    1  UNL1       -0.0205
     48 C          60.3878   85.7240    7.2066 C.ar    1  UNL1       -0.0042
     49 C          61.2382   84.6893    6.5311 C.ar    1  UNL1       -0.0003
     50 C          62.6576   84.4824    6.9697 C.ar    1  UNL1       -0.0000
     51 C          63.2267   85.3101    8.0837 C.ar    1  UNL1       -0.0003
     52 C          62.3763   86.3447    8.7591 C.ar    1  UNL1       -0.0042
@<TRIPOS>BOND
     1    35    36    2
     2    36    37   am
     3    37    34    1
     4    34    46    1
     5    46    47    1
     6    47    48   ar
     7    48    49   ar
     8    49    50   ar
     9    50    51   ar
    10    51    52   ar
    11    34    33    1
    12    33     1    1
    13     1    22    1
    14    22    23    1
    15    23    24   ar
    16    24    25   ar
    17    25    26   ar
    18    26    27   ar
    19    27    28   ar
    20    28    29   ar
    21    29    30   ar
    22    30    31   ar
    23    31    32   ar
    24     1     2    1
    25     3     2    1
    26     3    15    1
    27    15    16    1
    28    16    17   ar
    29    17    18   ar
    30    18    19   ar
    31    19    20   ar
    32    20    21   ar
    33     3     4    1
    34     4     5   am
    35     5     6    2
    36     5     8    1
    37     8     9    1
    38     9    10    1
    39    10    11   ar
    40    11    12   ar
    41    12    13   ar
    42    13    14   ar
    43    36    39    1
    44    39    40    1
    45    40    41    1
    46    41    42   ar
    47    42    43   ar
    48    43    44   ar
    49    44    45   ar
    50    52    47   ar
    51    32    23   ar
    52    21    16   ar
    53    14    10   ar
    54    45    41   ar
    55    31    26   ar
    56    37    38    1
    57     4     7    1
@<TRIPOS>MOLECULE
*****
 52 57 0 0 0
SMALL
GASTEIGER

@<TRIPOS>ATOM
      1 N          62.6697   90.0332   12.2397 N.3     1  UNL1       -0.2660
      2 C          61.4154   89.2199   12.1157 C.3     1  UNL1        0.0926
      3 C          61.2563   88.2555   10.9780 C.3     1  UNL1        0.0950
      4 N          61.3124   88.7493    9.5627 N.am    1  UNL1       -0.2706
      5 C          60.1702   88.4799    8.6285 C.2     1  UNL1        0.4020
      6 O          58.9717   87.7168    9.1097 O.2     1  UNL1       -0.2264
      7 H          62.0990   89.2501    9.2469 H       1  UNL1        0.1527
      8 O          60.2263   88.9737    7.2132 O.3     1  UNL1       -0.4291
      9 C          58.9574   89.2894    6.4782 C.3     1  UNL1        0.2447
     10 C          58.8866   90.4943    5.5876 C.ar    1  UNL1        0.0714
     11 C          57.6385   91.2268    5.1929 C.ar    1  UNL1        0.1053
     12 N          58.0319   92.3635    4.2966 N.ar    1  UNL1       -0.2350
     13 C          59.5232   92.3335    4.1374 C.ar    1  UNL1        0.1343
     14 S          60.0514   91.1783    4.9352 S.2     1  UNL1       -0.0652
     15 C          61.0410   86.7972   11.2555 C.3     1  UNL1        0.0474
     16 C          61.9858   85.7786   10.6897 C.ar    1  UNL1       -0.0205
     17 C          62.5520   84.7078   11.5744 C.ar    1  UNL1       -0.0042
     18 C          63.4966   83.6893   11.0086 C.ar    1  UNL1       -0.0003
     19 C          63.8751   83.7416    9.5580 C.ar    1  UNL1       -0.0000
     20 C          63.3089   84.8124    8.6733 C.ar    1  UNL1       -0.0003
     21 C          62.3642   85.8309    9.2392 C.ar    1  UNL1       -0.0042
     22 C          62.7267   91.4166   11.6627 C.3     1  UNL1        0.1008
     23 C          64.0151   91.9436   11.1038 C.ar    1  UNL1        0.0130
     24 C          65.0601   90.9915   10.6021 C.ar    1  UNL1        0.0959
     25 N          66.3485   91.5185   10.0432 N.ar    1  UNL1       -0.2441
     26 C          66.5919   92.9975    9.9860 C.ar    1  UNL1        0.0813
     27 C          67.8803   93.5245    9.4272 C.ar    1  UNL1        0.0191
     28 C          68.1237   95.0034    9.3700 C.ar    1  UNL1        0.0015
     29 C          67.0788   95.9555    9.8717 C.ar    1  UNL1        0.0001
     30 C          65.7904   95.4285   10.4305 C.ar    1  UNL1        0.0015
     31 C          65.5470   93.9496   10.4877 C.ar    1  UNL1        0.0174
     32 C          64.2585   93.4226   11.0466 C.ar    1  UNL1        0.0001
     33 C          63.8670   89.4630   12.9406 C.3     1  UNL1        0.0926
     34 C          64.1708   89.8648   14.3535 C.3     1  UNL1        0.0950
     35 O          61.8068   89.4638   16.1565 O.2     1  UNL1       -0.2264
     36 C          63.0377   88.6256   16.3361 C.2     1  UNL1        0.4020
     37 N          64.2197   88.8261   15.4347 N.am    1  UNL1       -0.2706
     38 H          65.0277   88.2760   15.5526 H       1  UNL1        0.1527
     39 O          63.0866   87.5869   17.4172 O.3     1  UNL1       -0.4274
     40 C          62.5802   86.2008   17.1490 C.3     1  UNL1        0.2621
     41 C          63.2711   85.3319   16.1402 C.ar    1  UNL1        0.1323
     42 N          64.5346   85.6682   15.4050 N.ar    1  UNL1       -0.2374
     43 C          64.8642   84.5184   14.4999 C.ar    1  UNL1        0.1062
     44 C          63.8044   83.4715   14.6756 C.ar    1  UNL1        0.0573
     45 S          62.8198   83.9743   15.6894 S.2     1  UNL1       -0.0666
     46 C          64.4256   91.3053   14.6853 C.3     1  UNL1        0.0474
     47 C          65.8330   91.8059   14.8218 C.ar    1  UNL1       -0.0205
     48 C          66.7987   91.6481   13.6850 C.ar    1  UNL1       -0.0042
     49 C          68.2061   92.1487   13.8215 C.ar    1  UNL1       -0.0003
     50 C          68.6477   92.8071   15.0949 C.ar    1  UNL1       -0.0000
     51 C          67.6820   92.9649   16.2317 C.ar    1  UNL1       -0.0003
     52 C          66.2747   92.4643   16.0952 C.ar    1  UNL1       -0.0042
@<TRIPOS>BOND
     1    35    36    2
     2    36    37   am
     3    37    34    1
     4    34    46    1
     5    46    47    1
     6    47    48   ar
     7    48    49   ar
     8    49    50   ar
     9    50    51   ar
    10    51    52   ar
    11    34    33    1
    12    33     1    1
    13     1    22    1
    14    22    23    1
    15    23    24   ar
    16    24    25   ar
    17    25    26   ar
    18    26    27   ar
    19    27    28   ar
    20    28    29   ar
    21    29    30   ar
    22    30    31   ar
    23    31    32   ar
    24     1     2    1
    25     3     2    1
    26     3    15    1
    27    15    16    1
    28    16    17   ar
    29    17    18   ar
    30    18    19   ar
    31    19    20   ar
    32    20    21   ar
    33     3     4    1
    34     4     5   am
    35     5     6    2
    36     5     8    1
    37     8     9    1
    38     9    10    1
    39    10    11   ar
    40    11    12   ar
    41    12    13   ar
    42    13    14   ar
    43    36    39    1
    44    39    40    1
    45    40    41    1
    46    41    42   ar
    47    42    43   ar
    48    43    44   ar
    49    44    45   ar
    50    52    47   ar
    51    32    23   ar
    52    21    16   ar
    53    14    10   ar
    54    45    41   ar
    55    31    26   ar
    56    37    38    1
    57     4     7    1
@<TRIPOS>MOLECULE
*****
 52 57 0 0 0
SMALL
GASTEIGER

@<TRIPOS>ATOM
      1 N          62.9737   88.4259   12.5242 N.3     1  UNL1       -0.2660
      2 C          63.6532   89.4391   11.6514 C.3     1  UNL1        0.0926
      3 C          63.5918   90.8954   12.0054 C.3     1  UNL1        0.0950
      4 N          63.3884   91.3127   13.4318 N.am    1  UNL1       -0.2706
      5 C          64.4849   91.1120   14.4355 C.2     1  UNL1        0.4020
      6 O          65.7848   90.4941   14.0128 O.2     1  UNL1       -0.2264
      7 H          62.5353   91.7182   13.7092 H       1  UNL1        0.1527
      8 O          64.2816   91.5293   15.8619 O.3     1  UNL1       -0.4291
      9 C          65.1470   92.5977   16.4615 C.3     1  UNL1        0.2447
     10 C          66.5863   92.7128   16.0552 C.ar    1  UNL1        0.0714
     11 C          67.7452   92.0208   16.7095 C.ar    1  UNL1        0.1053
     12 N          68.9947   92.4205   15.9819 N.ar    1  UNL1       -0.2350
     13 C          68.6079   93.3595   14.8779 C.ar    1  UNL1        0.1343
     14 S          67.1195   93.5402   14.9232 S.2     1  UNL1       -0.0652
     15 C          63.7337   91.9346   10.9330 C.3     1  UNL1        0.0474
     16 C          65.0670   92.5736   10.6797 C.ar    1  UNL1       -0.0205
     17 C          66.3270   91.7854   10.8820 C.ar    1  UNL1       -0.0042
     18 C          67.6602   92.4244   10.6287 C.ar    1  UNL1       -0.0003
     19 C          67.7334   93.8517   10.1730 C.ar    1  UNL1       -0.0000
     20 C          66.4733   94.6399    9.9707 C.ar    1  UNL1       -0.0003
     21 C          65.1401   94.0008   10.2240 C.ar    1  UNL1       -0.0042
     22 C          63.7689   87.6514   13.5330 C.3     1  UNL1        0.1008
     23 C          63.5005   86.1897   13.7375 C.ar    1  UNL1        0.0130
     24 C          63.2574   85.6579   15.1188 C.ar    1  UNL1        0.0959
     25 N          62.9890   84.1963   15.3232 N.ar    1  UNL1       -0.2441
     26 C          62.9639   83.2666   14.1463 C.ar    1  UNL1        0.0813
     27 C          62.6955   81.8050   14.3508 C.ar    1  UNL1        0.0191
     28 C          62.6704   80.8753   13.1739 C.ar    1  UNL1        0.0015
     29 C          62.9135   81.4072   11.7926 C.ar    1  UNL1        0.0001
     30 C          63.1819   82.8687   11.5882 C.ar    1  UNL1        0.0015
     31 C          63.2070   83.7984   12.7650 C.ar    1  UNL1        0.0174
     32 C          63.4754   85.2600   12.5606 C.ar    1  UNL1        0.0001
     33 C          61.4990   88.1873   12.3881 C.3     1  UNL1        0.0926
     34 C          60.9578   87.5181   11.1596 C.3     1  UNL1        0.0950
     35 O          61.9617   89.4926    9.1363 O.2     1  UNL1       -0.2264
     36 C          60.4899   89.2319    9.2637 C.2     1  UNL1        0.4020
     37 N          59.9880   88.2446   10.2754 N.am    1  UNL1       -0.2706
     38 H          59.0221   88.0735   10.3590 H       1  UNL1        0.1527
     39 O          59.5203   89.9584    8.3795 O.3     1  UNL1       -0.4274
     40 C          59.2883   89.4872    6.9745 C.3     1  UNL1        0.2621
     41 C          59.2676   90.4751    5.8459 C.ar    1  UNL1        0.1323
     42 N          60.4649   90.9922    5.1049 N.ar    1  UNL1       -0.2374
     43 C          59.9833   91.9560    4.0613 C.ar    1  UNL1        0.1062
     44 C          58.4884   92.0346    4.1573 C.ar    1  UNL1        0.0573
     45 S          58.0461   91.1193    5.2603 S.2     1  UNL1       -0.0666
     46 C          61.3863   86.1225   10.8152 C.3     1  UNL1        0.0474
     47 C          61.5700   85.7269    9.3800 C.ar    1  UNL1       -0.0205
     48 C          60.4276   85.8508    8.4158 C.ar    1  UNL1       -0.0042
     49 C          60.6113   85.4552    6.9807 C.ar    1  UNL1       -0.0003
     50 C          61.9373   84.9357    6.5097 C.ar    1  UNL1       -0.0000
     51 C          63.0796   84.8118    7.4738 C.ar    1  UNL1       -0.0003
     52 C          62.8960   85.2074    8.9090 C.ar    1  UNL1       -0.0042
@<TRIPOS>BOND
     1    35    36    2
     2    36    37   am
     3    37    34    1
     4    34    46    1
     5    46    47    1
     6    47    48   ar
     7    48    49   ar
     8    49    50   ar
     9    50    51   ar
    10    51    52   ar
    11    34    33    1
    12    33     1    1
    13     1    22    1
    14    22    23    1
    15    23    24   ar
    16    24    25   ar
    17    25    26   ar
    18    26    27   ar
    19    27    28   ar
    20    28    29   ar
    21    29    30   ar
    22    30    31   ar
    23    31    32   ar
    24     1     2    1
    25     3     2    1
    26     3    15    1
    27    15    16    1
    28    16    17   ar
    29    17    18   ar
    30    18    19   ar
    31    19    20   ar
    32    20    21   ar
    33     3     4    1
    34     4     5   am
    35     5     6    2
    36     5     8    1
    37     8     9    1
    38     9    10    1
    39    10    11   ar
    40    11    12   ar
    41    12    13   ar
    42    13    14   ar
    43    36    39    1
    44    39    40    1
    45    40    41    1
    46    41    42   ar
    47    42    43   ar
    48    43    44   ar
    49    44    45   ar
    50    52    47   ar
    51    32    23   ar
    52    21    16   ar
    53    14    10   ar
    54    45    41   ar
    55    31    26   ar
    56    37    38    1
    57     4     7    1
