@<TRIPOS>MOLECULE
*****
 31 33 0 0 0
SMALL
GASTEIGER

@<TRIPOS>ATOM
      1 C          64.9616   91.2411   13.5242 C.ar    1  UNL1        0.1572
      2 C          64.3417   89.8755   13.5548 C.ar    1  UNL1        0.0377
      3 C          63.4822   89.4163   12.4145 C.ar    1  UNL1        0.0519
      4 C          63.2424   90.3227   11.2436 C.ar    1  UNL1        0.0179
      5 C          63.8623   91.6882   11.2130 C.ar    1  UNL1        0.0402
      6 C          64.7219   92.1474   12.3533 C.ar    1  UNL1        0.1638
      7 N          66.6807   92.1595   15.8048 N.3     1  UNL1       -0.2034
      8 S          65.8211   91.7003   14.6645 S.O2    1  UNL1        0.0601
      9 O          67.0498   91.4243   13.8495 O.2     1  UNL1       -0.1531
     10 O          64.5925   91.9762   15.4795 O.2     1  UNL1       -0.1531
     11 H          67.2135   92.9812   15.5195 H       1  UNL1        0.1442
     12 H          67.3232   91.4124   16.0686 H       1  UNL1        0.1442
     13 N          62.8623   88.0507   12.4451 N.am    1  UNL1       -0.2836
     14 C          62.3328   87.4389   11.1820 C.2     1  UNL1        0.2305
     15 O          62.4232   88.1928    9.8883 O.2     1  UNL1       -0.2744
     16 H          62.8030   87.5559   13.2942 H       1  UNL1        0.1549
     17 C          61.7130   86.0733   11.2126 C.3     1  UNL1        0.1116
     18 C          62.5844   84.8561   11.3070 C.ar    1  UNL1       -0.0131
     19 C          62.7808   84.1750   12.6289 C.ar    1  UNL1       -0.0038
     20 C          63.6522   82.9577   12.7233 C.ar    1  UNL1       -0.0003
     21 C          64.3272   82.4215   11.4958 C.ar    1  UNL1       -0.0000
     22 C          64.1308   83.1026   10.1738 C.ar    1  UNL1       -0.0003
     23 C          63.2593   84.3199   10.0794 C.ar    1  UNL1       -0.0038
     24 O          65.3417   93.5131   12.3227 O.3     1  UNL1       -0.4521
     25 C          66.2188   93.9130   11.1735 C.ar    1  UNL1        0.1462
     26 C          66.2380   95.3379   10.7050 C.ar    1  UNL1        0.0375
     27 C          67.1151   95.7378    9.5557 C.ar    1  UNL1        0.0040
     28 C          67.9730   94.7128    8.8749 C.ar    1  UNL1        0.0116
     29 C          67.9538   93.2880    9.3434 C.ar    1  UNL1        0.0607
     30 CL         68.8117   92.2631    8.6626 Cl      1  UNL1       -0.0821
     31 C          67.0767   92.8881   10.4926 C.ar    1  UNL1        0.0489
@<TRIPOS>BOND
     1     7     8    1
     2     8     9    2
     3     8    10    2
     4     8     1    1
     5     1     2   ar
     6     2     3   ar
     7     3    13    1
     8    13    14   am
     9    14    15    2
    10    14    17    1
    11    17    18    1
    12    18    19   ar
    13    19    20   ar
    14    20    21   ar
    15    21    22   ar
    16    22    23   ar
    17     3     4   ar
    18     4     5   ar
    19     5     6   ar
    20     6    24    1
    21    24    25    1
    22    25    26   ar
    23    26    27   ar
    24    27    28   ar
    25    28    29   ar
    26    29    30    1
    27    29    31   ar
    28     6     1   ar
    29    31    25   ar
    30    23    18   ar
    31     7    11    1
    32     7    12    1
    33    13    16    1
@<TRIPOS>MOLECULE
*****
 31 33 0 0 0
SMALL
GASTEIGER

@<TRIPOS>ATOM
      1 C          66.1974   91.7871   14.0382 C.ar    1  UNL1        0.1572
      2 C          65.8118   90.4676   14.6383 C.ar    1  UNL1        0.0377
      3 C          64.6078   89.7339   14.1262 C.ar    1  UNL1        0.0519
      4 C          63.7896   90.3198   13.0139 C.ar    1  UNL1        0.0179
      5 C          64.1752   91.6392   12.4137 C.ar    1  UNL1        0.0402
      6 C          65.3792   92.3729   12.9259 C.ar    1  UNL1        0.1638
      7 N          68.6053   93.2544   15.0625 N.3     1  UNL1       -0.2034
      8 S          67.4014   92.5207   14.5503 S.O2    1  UNL1        0.0601
      9 O          68.2543   91.8389   13.5220 O.2     1  UNL1       -0.1531
     10 O          66.5484   93.2025   15.5787 O.2     1  UNL1       -0.1531
     11 H          68.9745   93.8570   14.3271 H       1  UNL1        0.1442
     12 H          69.3197   92.5821   15.3418 H       1  UNL1        0.1442
     13 N          64.2222   88.4144   14.7263 N.am    1  UNL1       -0.2836
     14 C          63.5438   88.3682   16.0634 C.2     1  UNL1        0.2305
     15 O          63.2512   89.6416   16.8003 O.2     1  UNL1       -0.2744
     16 H          64.4143   87.5787   14.2427 H       1  UNL1        0.1549
     17 C          63.1582   87.0488   16.6636 C.3     1  UNL1        0.1116
     18 C          63.4138   85.7780   15.9087 C.ar    1  UNL1       -0.0131
     19 C          62.3887   84.6831   15.9145 C.ar    1  UNL1       -0.0038
     20 C          62.6443   83.4123   15.1596 C.ar    1  UNL1       -0.0003
     21 C          63.9251   83.2366   14.3989 C.ar    1  UNL1       -0.0000
     22 C          64.9503   84.3316   14.3931 C.ar    1  UNL1       -0.0003
     23 C          64.6947   85.6023   15.1480 C.ar    1  UNL1       -0.0038
     24 O          65.7648   93.6924   12.3257 O.3     1  UNL1       -0.4521
     25 C          66.5584   93.7344   11.0535 C.ar    1  UNL1        0.1462
     26 C          67.2622   92.5022   10.5675 C.ar    1  UNL1        0.0375
     27 C          68.0557   92.5443    9.2953 C.ar    1  UNL1        0.0040
     28 C          68.1455   93.8185    8.5091 C.ar    1  UNL1        0.0116
     29 C          67.4417   95.0508    8.9951 C.ar    1  UNL1        0.0607
     30 CL         67.5314   96.3251    8.2089 Cl      1  UNL1       -0.0821
     31 C          66.6481   95.0088   10.2673 C.ar    1  UNL1        0.0489
@<TRIPOS>BOND
     1     7     8    1
     2     8     9    2
     3     8    10    2
     4     8     1    1
     5     1     2   ar
     6     2     3   ar
     7     3    13    1
     8    13    14   am
     9    14    15    2
    10    14    17    1
    11    17    18    1
    12    18    19   ar
    13    19    20   ar
    14    20    21   ar
    15    21    22   ar
    16    22    23   ar
    17     3     4   ar
    18     4     5   ar
    19     5     6   ar
    20     6    24    1
    21    24    25    1
    22    25    26   ar
    23    26    27   ar
    24    27    28   ar
    25    28    29   ar
    26    29    30    1
    27    29    31   ar
    28     6     1   ar
    29    31    25   ar
    30    23    18   ar
    31     7    11    1
    32     7    12    1
    33    13    16    1
@<TRIPOS>MOLECULE
*****
 31 33 0 0 0
SMALL
GASTEIGER

@<TRIPOS>ATOM
      1 C          66.0862   91.6954   14.3704 C.ar    1  UNL1        0.1572
      2 C          65.7437   90.3193   14.8592 C.ar    1  UNL1        0.0377
      3 C          64.6127   89.5601   14.2311 C.ar    1  UNL1        0.0519
      4 C          63.8241   90.1770   13.1142 C.ar    1  UNL1        0.0179
      5 C          64.1666   91.5532   12.6254 C.ar    1  UNL1        0.0402
      6 C          65.2976   92.3123   13.2535 C.ar    1  UNL1        0.1638
      7 N          68.3482   93.2138   15.6265 N.3     1  UNL1       -0.2034
      8 S          67.2172   92.4546   14.9984 S.O2    1  UNL1        0.0601
      9 O          66.3178   92.8596   16.1285 O.2     1  UNL1       -0.1531
     10 O          68.1166   92.0496   13.8683 O.2     1  UNL1       -0.1531
     11 H          68.5700   92.8044   16.5340 H       1  UNL1        0.1442
     12 H          68.0756   94.1888   15.7508 H       1  UNL1        0.1442
     13 N          64.2703   88.1839   14.7200 N.am    1  UNL1       -0.2836
     14 C          63.5900   88.0065   16.0451 C.2     1  UNL1        0.2305
     15 O          63.2521   89.2052   16.8812 O.2     1  UNL1       -0.2744
     16 H          64.4921   87.3972   14.1713 H       1  UNL1        0.1549
     17 C          63.2476   86.6304   16.5340 C.3     1  UNL1        0.1116
     18 C          63.4397   85.4455   15.6345 C.ar    1  UNL1       -0.0131
     19 C          62.3765   84.3911   15.5457 C.ar    1  UNL1       -0.0038
     20 C          62.5686   83.2062   14.6462 C.ar    1  UNL1       -0.0003
     21 C          63.8239   83.0756   13.8355 C.ar    1  UNL1       -0.0000
     22 C          64.8871   84.1300   13.9243 C.ar    1  UNL1       -0.0003
     23 C          64.6950   85.3150   14.8238 C.ar    1  UNL1       -0.0038
     24 O          65.6400   93.6885   12.7646 O.3     1  UNL1       -0.4521
     25 C          66.3351   93.8651   11.4471 C.ar    1  UNL1        0.1462
     26 C          66.2768   95.1864   10.7395 C.ar    1  UNL1        0.0375
     27 C          66.9719   95.3629    9.4220 C.ar    1  UNL1        0.0040
     28 C          67.7252   94.2181    8.8122 C.ar    1  UNL1        0.0116
     29 C          67.7835   92.8968    9.5198 C.ar    1  UNL1        0.0607
     30 CL         68.5369   91.7520    8.9100 Cl      1  UNL1       -0.0821
     31 C          67.0885   92.7202   10.8373 C.ar    1  UNL1        0.0489
@<TRIPOS>BOND
     1     7     8    1
     2     8     9    2
     3     8    10    2
     4     8     1    1
     5     1     2   ar
     6     2     3   ar
     7     3    13    1
     8    13    14   am
     9    14    15    2
    10    14    17    1
    11    17    18    1
    12    18    19   ar
    13    19    20   ar
    14    20    21   ar
    15    21    22   ar
    16    22    23   ar
    17     3     4   ar
    18     4     5   ar
    19     5     6   ar
    20     6    24    1
    21    24    25    1
    22    25    26   ar
    23    26    27   ar
    24    27    28   ar
    25    28    29   ar
    26    29    30    1
    27    29    31   ar
    28     6     1   ar
    29    31    25   ar
    30    23    18   ar
    31     7    11    1
    32     7    12    1
    33    13    16    1
@<TRIPOS>MOLECULE
*****
 31 33 0 0 0
SMALL
GASTEIGER

@<TRIPOS>ATOM
      1 C          63.3202   89.5753   13.9198 C.ar    1  UNL1        0.1572
      2 C          62.7328   88.8384   12.7529 C.ar    1  UNL1        0.0377
      3 C          62.6601   89.4991   11.4082 C.ar    1  UNL1        0.0519
      4 C          63.1748   90.8968   11.2305 C.ar    1  UNL1        0.0179
      5 C          63.7623   91.6337   12.3974 C.ar    1  UNL1        0.0402
      6 C          63.8350   90.9729   13.7421 C.ar    1  UNL1        0.1638
      7 N          63.4657   88.2539   16.6092 N.3     1  UNL1       -0.2034
      8 S          63.3930   88.9146   15.2645 S.O2    1  UNL1        0.0601
      9 O          64.6036   88.1474   14.8220 O.2     1  UNL1       -0.1531
     10 O          62.1823   89.6818   15.7069 O.2     1  UNL1       -0.1531
     11 H          64.3406   88.5098   17.0669 H       1  UNL1        0.1442
     12 H          63.4263   87.2413   16.4930 H       1  UNL1        0.1442
     13 N          62.0726   88.7622   10.2412 N.am    1  UNL1       -0.2836
     14 C          60.7134   88.1379   10.3557 C.2     1  UNL1        0.2305
     15 O          59.9418   88.2506   11.6371 O.2     1  UNL1       -0.2744
     16 H          62.5790   88.6882    9.4002 H       1  UNL1        0.1549
     17 C          60.1259   87.4009    9.1888 C.3     1  UNL1        0.1116
     18 C          60.9614   86.4159    8.4261 C.ar    1  UNL1       -0.0131
     19 C          60.4189   85.7765    7.1824 C.ar    1  UNL1       -0.0038
     20 C          61.2544   84.7915    6.4198 C.ar    1  UNL1       -0.0003
     21 C          62.6324   84.4457    6.9009 C.ar    1  UNL1       -0.0000
     22 C          63.1750   85.0851    8.1447 C.ar    1  UNL1       -0.0003
     23 C          62.3395   86.0701    8.9073 C.ar    1  UNL1       -0.0038
     24 O          64.4225   91.7099   14.9091 O.3     1  UNL1       -0.4521
     25 C          65.8898   92.0198   14.9387 C.ar    1  UNL1        0.1462
     26 C          66.4866   92.7102   16.1291 C.ar    1  UNL1        0.0375
     27 C          67.9540   93.0202   16.1587 C.ar    1  UNL1        0.0040
     28 C          68.8245   92.6397   14.9979 C.ar    1  UNL1        0.0116
     29 C          68.2276   91.9493   13.8075 C.ar    1  UNL1        0.0607
     30 CL         69.0981   91.5689   12.6467 Cl      1  UNL1       -0.0821
     31 C          66.7603   91.6394   13.7778 C.ar    1  UNL1        0.0489
@<TRIPOS>BOND
     1     7     8    1
     2     8     9    2
     3     8    10    2
     4     8     1    1
     5     1     2   ar
     6     2     3   ar
     7     3    13    1
     8    13    14   am
     9    14    15    2
    10    14    17    1
    11    17    18    1
    12    18    19   ar
    13    19    20   ar
    14    20    21   ar
    15    21    22   ar
    16    22    23   ar
    17     3     4   ar
    18     4     5   ar
    19     5     6   ar
    20     6    24    1
    21    24    25    1
    22    25    26   ar
    23    26    27   ar
    24    27    28   ar
    25    28    29   ar
    26    29    30    1
    27    29    31   ar
    28     6     1   ar
    29    31    25   ar
    30    23    18   ar
    31     7    11    1
    32     7    12    1
    33    13    16    1
@<TRIPOS>MOLECULE
*****
 31 33 0 0 0
SMALL
GASTEIGER

@<TRIPOS>ATOM
      1 C          65.3230   91.6216   13.7100 C.ar    1  UNL1        0.1572
      2 C          64.5626   90.3335   13.5988 C.ar    1  UNL1        0.0377
      3 C          63.7194   90.0624   12.3881 C.ar    1  UNL1        0.0519
      4 C          63.6367   91.0794   11.2887 C.ar    1  UNL1        0.0179
      5 C          64.3972   92.3675   11.3999 C.ar    1  UNL1        0.0402
      6 C          65.2403   92.6386   12.6105 C.ar    1  UNL1        0.1638
      7 N          67.0093   92.1638   16.1312 N.3     1  UNL1       -0.2034
      8 S          66.1662   91.8927   14.9206 S.O2    1  UNL1        0.0601
      9 O          67.3940   91.5011   14.1531 O.2     1  UNL1       -0.1531
     10 O          64.9383   92.2842   15.6881 O.2     1  UNL1       -0.1531
     11 H          67.6618   92.9211   15.9285 H       1  UNL1        0.1442
     12 H          67.5308   91.3225   16.3777 H       1  UNL1        0.1442
     13 N          62.9589   88.7742   12.2770 N.am    1  UNL1       -0.2836
     14 C          62.4233   88.3318   10.9475 C.2     1  UNL1        0.2305
     15 O          62.6482   89.1776    9.7293 O.2     1  UNL1       -0.2744
     16 H          62.8114   88.2191   13.0765 H       1  UNL1        0.1549
     17 C          61.6629   87.0437   10.8363 C.3     1  UNL1        0.1116
     18 C          61.5750   86.3362    9.5166 C.ar    1  UNL1       -0.0131
     19 C          62.7679   85.6041    8.9772 C.ar    1  UNL1       -0.0038
     20 C          62.6800   84.8966    7.6575 C.ar    1  UNL1       -0.0003
     21 C          61.3992   84.9211    6.8772 C.ar    1  UNL1       -0.0000
     22 C          60.2062   85.6531    7.4166 C.ar    1  UNL1       -0.0003
     23 C          60.2941   86.3607    8.7363 C.ar    1  UNL1       -0.0038
     24 O          66.0008   93.9268   12.7217 O.3     1  UNL1       -0.4521
     25 C          66.4334   94.6518   11.4819 C.ar    1  UNL1        0.1462
     26 C          66.2066   96.1295   11.3594 C.ar    1  UNL1        0.0375
     27 C          66.6392   96.8544   10.1194 C.ar    1  UNL1        0.0040
     28 C          67.2986   96.1017    9.0021 C.ar    1  UNL1        0.0116
     29 C          67.5255   94.6240    9.1246 C.ar    1  UNL1        0.0607
     30 CL         68.1849   93.8713    8.0073 Cl      1  UNL1       -0.0821
     31 C          67.0929   93.8991   10.3644 C.ar    1  UNL1        0.0489
@<TRIPOS>BOND
     1     7     8    1
     2     8     9    2
     3     8    10    2
     4     8     1    1
     5     1     2   ar
     6     2     3   ar
     7     3    13    1
     8    13    14   am
     9    14    15    2
    10    14    17    1
    11    17    18    1
    12    18    19   ar
    13    19    20   ar
    14    20    21   ar
    15    21    22   ar
    16    22    23   ar
    17     3     4   ar
    18     4     5   ar
    19     5     6   ar
    20     6    24    1
    21    24    25    1
    22    25    26   ar
    23    26    27   ar
    24    27    28   ar
    25    28    29   ar
    26    29    30    1
    27    29    31   ar
    28     6     1   ar
    29    31    25   ar
    30    23    18   ar
    31     7    11    1
    32     7    12    1
    33    13    16    1
@<TRIPOS>MOLECULE
*****
 31 33 0 0 0
SMALL
GASTEIGER

@<TRIPOS>ATOM
      1 C          61.8323   88.3633   10.7413 C.ar    1  UNL1        0.1572
      2 C          62.4406   89.7339   10.7058 C.ar    1  UNL1        0.0377
      3 C          63.4389   90.1387   11.7497 C.ar    1  UNL1        0.0519
      4 C          63.8289   89.1728   12.8290 C.ar    1  UNL1        0.0179
      5 C          63.2206   87.8022   12.8644 C.ar    1  UNL1        0.0402
      6 C          62.2223   87.3974   11.8206 C.ar    1  UNL1        0.1638
      7 N          59.8358   87.5538    8.6535 N.3     1  UNL1       -0.2034
      8 S          60.8341   87.9585    9.6974 S.O2    1  UNL1        0.0601
      9 O          59.7367   88.5892   10.5023 O.2     1  UNL1       -0.1531
     10 O          61.9315   87.3278    8.8925 O.2     1  UNL1       -0.1531
     11 H          59.4139   88.3877    8.2451 H       1  UNL1        0.1442
     12 H          59.1093   86.9803    9.0821 H       1  UNL1        0.1442
     13 N          64.0472   91.5094   11.7141 N.am    1  UNL1       -0.2836
     14 C          65.0971   91.8902   12.7155 C.2     1  UNL1        0.2305
     15 O          65.5387   90.9002   13.7523 O.2     1  UNL1       -0.2744
     16 H          63.7573   92.1591   11.0336 H       1  UNL1        0.1549
     17 C          65.7054   93.2608   12.6800 C.3     1  UNL1        0.1116
     18 C          66.3981   93.7421   11.4397 C.ar    1  UNL1       -0.0131
     19 C          66.3465   95.1941   11.0672 C.ar    1  UNL1       -0.0038
     20 C          67.0392   95.6754    9.8268 C.ar    1  UNL1       -0.0003
     21 C          67.7836   94.7046    8.9589 C.ar    1  UNL1       -0.0000
     22 C          67.8353   93.2524    9.3314 C.ar    1  UNL1       -0.0003
     23 C          67.1426   92.7711   10.5717 C.ar    1  UNL1       -0.0038
     24 O          61.6140   86.0267   11.8561 O.3     1  UNL1       -0.4521
     25 C          62.4741   84.8185   11.6318 C.ar    1  UNL1        0.1462
     26 C          63.1090   84.5880   10.2925 C.ar    1  UNL1        0.0375
     27 C          63.9691   83.3796   10.0682 C.ar    1  UNL1        0.0040
     28 C          64.1943   82.4019   11.1832 C.ar    1  UNL1        0.0116
     29 C          63.5594   82.6324   12.5225 C.ar    1  UNL1        0.0607
     30 CL         63.7845   81.6546   13.6375 Cl      1  UNL1       -0.0821
     31 C          62.6993   83.8406   12.7468 C.ar    1  UNL1        0.0489
@<TRIPOS>BOND
     1     7     8    1
     2     8     9    2
     3     8    10    2
     4     8     1    1
     5     1     2   ar
     6     2     3   ar
     7     3    13    1
     8    13    14   am
     9    14    15    2
    10    14    17    1
    11    17    18    1
    12    18    19   ar
    13    19    20   ar
    14    20    21   ar
    15    21    22   ar
    16    22    23   ar
    17     3     4   ar
    18     4     5   ar
    19     5     6   ar
    20     6    24    1
    21    24    25    1
    22    25    26   ar
    23    26    27   ar
    24    27    28   ar
    25    28    29   ar
    26    29    30    1
    27    29    31   ar
    28     6     1   ar
    29    31    25   ar
    30    23    18   ar
    31     7    11    1
    32     7    12    1
    33    13    16    1
@<TRIPOS>MOLECULE
*****
 31 33 0 0 0
SMALL
GASTEIGER

@<TRIPOS>ATOM
      1 C          63.3324   89.5679   12.8657 C.ar    1  UNL1        0.1572
      2 C          64.0492   90.8679   12.6510 C.ar    1  UNL1        0.0377
      3 C          63.9635   91.5614   11.3236 C.ar    1  UNL1        0.0519
      4 C          63.1610   90.9548   10.2110 C.ar    1  UNL1        0.0179
      5 C          62.4441   89.6548   10.4257 C.ar    1  UNL1        0.0402
      6 C          62.5299   88.9614   11.7531 C.ar    1  UNL1        0.1638
      7 N          63.5038   88.1811   15.5203 N.3     1  UNL1       -0.2034
      8 S          63.4181   88.8745   14.1930 S.O2    1  UNL1        0.0601
      9 O          62.3761   89.8017   14.7447 O.2     1  UNL1       -0.1531
     10 O          64.4602   87.9473   13.6413 O.2     1  UNL1       -0.1531
     11 H          62.6044   87.7524   15.7387 H       1  UNL1        0.1442
     12 H          63.7416   88.8597   16.2437 H       1  UNL1        0.1442
     13 N          64.6804   92.8614   11.1089 N.am    1  UNL1       -0.2836
     14 C          65.7172   93.3174   12.0924 C.2     1  UNL1        0.2305
     15 O          66.0371   92.4734   13.2905 O.2     1  UNL1       -0.2744
     16 H          64.4705   93.4153   10.3226 H       1  UNL1        0.1549
     17 C          66.4341   94.6174   11.8777 C.3     1  UNL1        0.1116
     18 C          66.4464   95.2516   10.5184 C.ar    1  UNL1       -0.0131
     19 C          67.5363   94.9159    9.5441 C.ar    1  UNL1       -0.0038
     20 C          67.5487   95.5501    8.1848 C.ar    1  UNL1       -0.0003
     21 C          66.4711   96.5199    7.7999 C.ar    1  UNL1       -0.0000
     22 C          65.3811   96.8557    8.7743 C.ar    1  UNL1       -0.0003
     23 C          65.3688   96.2215   10.1336 C.ar    1  UNL1       -0.0038
     24 O          61.8130   87.6613   11.9677 O.3     1  UNL1       -0.4521
     25 C          62.3330   86.4047   11.3351 C.ar    1  UNL1        0.1462
     26 C          62.8109   85.2735   12.1965 C.ar    1  UNL1        0.0375
     27 C          63.3310   84.0168   11.5638 C.ar    1  UNL1        0.0040
     28 C          63.3732   83.8914   10.0696 C.ar    1  UNL1        0.0116
     29 C          62.8954   85.0226    9.2082 C.ar    1  UNL1        0.0607
     30 CL         62.9376   84.8971    7.7141 Cl      1  UNL1       -0.0821
     31 C          62.3753   86.2792    9.8409 C.ar    1  UNL1        0.0489
@<TRIPOS>BOND
     1     7     8    1
     2     8     9    2
     3     8    10    2
     4     8     1    1
     5     1     2   ar
     6     2     3   ar
     7     3    13    1
     8    13    14   am
     9    14    15    2
    10    14    17    1
    11    17    18    1
    12    18    19   ar
    13    19    20   ar
    14    20    21   ar
    15    21    22   ar
    16    22    23   ar
    17     3     4   ar
    18     4     5   ar
    19     5     6   ar
    20     6    24    1
    21    24    25    1
    22    25    26   ar
    23    26    27   ar
    24    27    28   ar
    25    28    29   ar
    26    29    30    1
    27    29    31   ar
    28     6     1   ar
    29    31    25   ar
    30    23    18   ar
    31     7    11    1
    32     7    12    1
    33    13    16    1
@<TRIPOS>MOLECULE
*****
 31 33 0 0 0
SMALL
GASTEIGER

@<TRIPOS>ATOM
      1 C          63.3586   90.3428   12.1502 C.ar    1  UNL1        0.1572
      2 C          63.3615   89.0774   12.9557 C.ar    1  UNL1        0.0377
      3 C          64.2814   88.9396   14.1325 C.ar    1  UNL1        0.0519
      4 C          65.1984   90.0671   14.5038 C.ar    1  UNL1        0.0179
      5 C          65.1954   91.3325   13.6983 C.ar    1  UNL1        0.0402
      6 C          64.2755   91.4703   12.5215 C.ar    1  UNL1        0.1638
      7 N          61.5188   90.6184    9.7967 N.3     1  UNL1       -0.2034
      8 S          62.4387   90.4806   10.9734 S.O2    1  UNL1        0.0601
      9 O          61.2593   90.5164   11.8996 O.2     1  UNL1       -0.1531
     10 O          63.6181   90.4448   10.0473 O.2     1  UNL1       -0.1531
     11 H          61.0287   91.5113    9.8510 H       1  UNL1        0.1442
     12 H          60.8401   89.8570    9.8046 H       1  UNL1        0.1442
     13 N          64.2843   87.6742   14.9380 N.am    1  UNL1       -0.2836
     14 C          63.8573   86.3823   14.3066 C.2     1  UNL1        0.2305
     15 O          63.4274   86.3558   12.8697 O.2     1  UNL1       -0.2744
     16 H          64.5665   87.6916   15.8810 H       1  UNL1        0.1549
     17 C          63.8602   85.1169   15.1120 C.3     1  UNL1        0.1116
     18 C          63.5016   83.8134   14.4622 C.ar    1  UNL1       -0.0131
     19 C          64.3686   83.2547   13.3731 C.ar    1  UNL1       -0.0038
     20 C          64.0100   81.9512   12.7233 C.ar    1  UNL1       -0.0003
     21 C          62.7843   81.2064   13.1625 C.ar    1  UNL1       -0.0000
     22 C          61.9173   81.7650   14.2517 C.ar    1  UNL1       -0.0003
     23 C          62.2759   83.0685   14.9015 C.ar    1  UNL1       -0.0038
     24 O          64.2726   92.7357   11.7160 O.3     1  UNL1       -0.4521
     25 C          65.5137   93.1670   10.9923 C.ar    1  UNL1        0.1462
     26 C          66.5580   92.1547   10.6255 C.ar    1  UNL1        0.0375
     27 C          67.7991   92.5860    9.9018 C.ar    1  UNL1        0.0040
     28 C          67.9958   94.0296    9.5449 C.ar    1  UNL1        0.0116
     29 C          66.9514   95.0419    9.9117 C.ar    1  UNL1        0.0607
     30 CL         67.1481   96.4854    9.5549 Cl      1  UNL1       -0.0821
     31 C          65.7104   94.6106   10.6354 C.ar    1  UNL1        0.0489
@<TRIPOS>BOND
     1     7     8    1
     2     8     9    2
     3     8    10    2
     4     8     1    1
     5     1     2   ar
     6     2     3   ar
     7     3    13    1
     8    13    14   am
     9    14    15    2
    10    14    17    1
    11    17    18    1
    12    18    19   ar
    13    19    20   ar
    14    20    21   ar
    15    21    22   ar
    16    22    23   ar
    17     3     4   ar
    18     4     5   ar
    19     5     6   ar
    20     6    24    1
    21    24    25    1
    22    25    26   ar
    23    26    27   ar
    24    27    28   ar
    25    28    29   ar
    26    29    30    1
    27    29    31   ar
    28     6     1   ar
    29    31    25   ar
    30    23    18   ar
    31     7    11    1
    32     7    12    1
    33    13    16    1
@<TRIPOS>MOLECULE
*****
 31 33 0 0 0
SMALL
GASTEIGER

@<TRIPOS>ATOM
      1 C          62.1412   87.9463   11.5493 C.ar    1  UNL1        0.1572
      2 C          62.8326   89.1460   12.1259 C.ar    1  UNL1        0.0377
      3 C          63.8251   88.9773   13.2378 C.ar    1  UNL1        0.0519
      4 C          64.1263   87.6089   13.7732 C.ar    1  UNL1        0.0179
      5 C          63.4349   86.4091   13.1965 C.ar    1  UNL1        0.0402
      6 C          62.4424   86.5778   12.0846 C.ar    1  UNL1        0.1638
      7 N          60.1561   88.2837    9.3254 N.3     1  UNL1       -0.2034
      8 S          61.1487   88.1150   10.4374 S.O2    1  UNL1        0.0601
      9 O          62.2484   87.9501    9.4307 O.2     1  UNL1       -0.1531
     10 O          60.0489   88.2798   11.4440 O.2     1  UNL1       -0.1531
     11 H          60.1197   87.4292    8.7696 H       1  UNL1        0.1442
     12 H          60.4396   89.0634    8.7320 H       1  UNL1        0.1442
     13 N          64.5165   90.1772   13.8145 N.am    1  UNL1       -0.2836
     14 C          64.0987   90.7129   15.1518 C.2     1  UNL1        0.2305
     15 O          62.9894   90.0488   15.9125 O.2     1  UNL1       -0.2744
     16 H          65.2445   90.6131   13.3152 H       1  UNL1        0.1549
     17 C          64.7900   91.9127   15.7284 C.3     1  UNL1        0.1116
     18 C          66.2307   92.1760   15.4042 C.ar    1  UNL1       -0.0131
     19 C          67.0981   92.9088   16.3842 C.ar    1  UNL1       -0.0038
     20 C          68.5388   93.1722   16.0600 C.ar    1  UNL1       -0.0003
     21 C          69.1120   92.7028   14.7558 C.ar    1  UNL1       -0.0000
     22 C          68.2445   91.9699   13.7757 C.ar    1  UNL1       -0.0003
     23 C          66.8039   91.7065   14.0999 C.ar    1  UNL1       -0.0038
     24 O          61.7510   85.3780   11.5080 O.3     1  UNL1       -0.4521
     25 C          62.5138   84.1047   11.2918 C.ar    1  UNL1        0.1462
     26 C          63.4861   83.9967   10.1547 C.ar    1  UNL1        0.0375
     27 C          64.2490   82.7233    9.9386 C.ar    1  UNL1        0.0040
     28 C          64.0394   81.5580   10.8594 C.ar    1  UNL1        0.0116
     29 C          63.0671   81.6660   11.9965 C.ar    1  UNL1        0.0607
     30 CL         62.8576   80.5006   12.9174 Cl      1  UNL1       -0.0821
     31 C          62.3043   82.9393   12.2127 C.ar    1  UNL1        0.0489
@<TRIPOS>BOND
     1     7     8    1
     2     8     9    2
     3     8    10    2
     4     8     1    1
     5     1     2   ar
     6     2     3   ar
     7     3    13    1
     8    13    14   am
     9    14    15    2
    10    14    17    1
    11    17    18    1
    12    18    19   ar
    13    19    20   ar
    14    20    21   ar
    15    21    22   ar
    16    22    23   ar
    17     3     4   ar
    18     4     5   ar
    19     5     6   ar
    20     6    24    1
    21    24    25    1
    22    25    26   ar
    23    26    27   ar
    24    27    28   ar
    25    28    29   ar
    26    29    30    1
    27    29    31   ar
    28     6     1   ar
    29    31    25   ar
    30    23    18   ar
    31     7    11    1
    32     7    12    1
    33    13    16    1
