@<TRIPOS>MOLECULE
*****
 40 42 0 0 0
SMALL
GASTEIGER

@<TRIPOS>ATOM
      1 C          63.5434   89.9849   13.2003 C.3     1  UNL1        0.1524
      2 N          62.7781   88.9969   10.9226 N.am    1  UNL1       -0.3048
      3 C          62.4480   89.5059   12.2945 C.2     1  UNL1        0.2383
      4 O          61.0225   89.5358   12.7605 O.2     1  UNL1       -0.2736
      5 H          63.7137   88.9772   10.6168 H       1  UNL1        0.1494
      6 C          61.1104   89.9952    9.5564 C.3     1  UNL1        0.0001
      7 C          60.9672   88.5077    9.4273 C.3     1  UNL1        0.0015
      8 C          61.9997   89.1800   10.2828 C.3     1  UNL1        0.0001
      9 C          59.8096   88.4913    8.4736 C.3     1  UNL1        0.0017
     10 C          59.4691   87.0598    8.1824 C.3     1  UNL1        0.0001
     11 C          60.4163   86.1914    8.9562 C.3     1  UNL1        0.0016
     12 C          61.3422   87.0863    9.7256 C.3     1  UNL1        0.0165
     13 C          62.4488   86.6384   10.6338 C.3     1  UNL1        0.0016
     14 C          61.6827   88.5178   10.0167 C.3     1  UNL1        0.0715
     15 C          60.7355   89.3862    9.2430 C.3     1  UNL1        0.0196
     16 N          63.6980   91.4504   13.4804 N.3     1  UNL1       -0.1620
     17 H          63.9252   91.5385   14.4709 H       1  UNL1        0.1504
     18 S          64.7177   92.2541   12.7291 S.O2    1  UNL1        0.0964
     19 O          64.3858   91.5023   11.4743 O.2     1  UNL1       -0.1413
     20 O          65.0200   92.7451   13.2796 O.2     1  UNL1       -0.1413
     21 N          65.7374   93.0577   11.9779 N.3     1  UNL1       -0.1655
     22 H          65.8960   93.9094   12.5163 H       1  UNL1        0.1502
     23 C          67.0872   92.4722   11.6862 C.3     1  UNL1        0.1126
     24 C          67.7380   92.7134   10.3564 C.2     1  UNL1        0.0662
     25 O          68.1061   91.5531    9.4800 O.co2   1  UNL1       -0.5478
     26 O          68.0206   94.1150    9.9030 O.co2   1  UNL1       -0.5478
     27 C          67.7864   91.6453   12.7243 C.3     1  UNL1        0.0232
     28 C          68.2098   92.2701   14.0206 C.3     1  UNL1        0.0032
     29 C          67.6090   91.7991   15.3117 C.3     1  UNL1        0.0169
     30 C          66.8398   92.7555   16.1740 C.3     1  UNL1        0.0651
     31 N          65.3434   92.6724   16.2359 N.3     1  UNL1       -0.3211
     32 H          64.9516   92.9111   15.3248 H       1  UNL1        0.1189
     33 H          64.9953   93.3260   16.9374 H       1  UNL1        0.1189
     34 C          64.4842   88.9983   13.8261 C.3     1  UNL1        0.0268
     35 C          64.0197   88.1352   14.9616 C.3     1  UNL1        0.0019
     36 C          63.3499   88.7570   16.1510 C.3     1  UNL1        0.0001
     37 C          62.8853   87.8939   17.2865 C.3     1  UNL1        0.0000
     38 C          63.0905   86.4090   17.2324 C.3     1  UNL1        0.0000
     39 C          63.7603   85.7872   16.0430 C.3     1  UNL1        0.0000
     40 C          64.2248   86.6503   14.9075 C.3     1  UNL1        0.0001
@<TRIPOS>UNITY_ATOM_ATTR
25 1
charge -1
@<TRIPOS>BOND
     1     6     7    1
     2     7     8    1
     3     7     9    1
     4     9    10    1
     5    10    11    1
     6    11    12    1
     7    12    13    1
     8    12    14    1
     9    14     2    1
    10     2     3   am
    11     3     4    2
    12     3     1    1
    13     1    34    1
    14    34    35    1
    15    35    36    1
    16    36    37    1
    17    37    38    1
    18    38    39    1
    19    39    40    1
    20     1    16    1
    21    16    18    1
    22    18    19    2
    23    18    20    2
    24    18    21    1
    25    21    23    1
    26    23    27    1
    27    27    28    1
    28    28    29    1
    29    29    30    1
    30    30    31    1
    31    23    24    1
    32    24    25   ar
    33    24    26   ar
    34    14    15    1
    35    12     7    1
    36    40    35    1
    37    15     9    1
    38     2     5    1
    39    16    17    1
    40    21    22    1
    41    31    32    1
    42    31    33    1
@<TRIPOS>MOLECULE
*****
 40 42 0 0 0
SMALL
GASTEIGER

@<TRIPOS>ATOM
      1 C          63.2846   89.8425   13.5773 C.3     1  UNL1        0.1524
      2 N          62.7378   88.8753   11.2289 N.am    1  UNL1       -0.3048
      3 C          62.2786   89.4464   12.5377 C.2     1  UNL1        0.2383
      4 O          60.8133   89.6213   12.8068 O.2     1  UNL1       -0.2736
      5 H          63.6995   88.7605   11.0522 H       1  UNL1        0.1494
      6 C          61.2943   89.9964    9.7110 C.3     1  UNL1        0.0001
      7 C          61.0902   88.5225    9.5215 C.3     1  UNL1        0.0015
      8 C          62.0496   89.1163   10.5097 C.3     1  UNL1        0.0001
      9 C          60.0519   88.5927    8.4411 C.3     1  UNL1        0.0017
     10 C          59.6739   87.1895    8.0696 C.3     1  UNL1        0.0001
     11 C          60.4784   86.2520    8.9204 C.3     1  UNL1        0.0016
     12 C          61.3537   87.0759    9.8177 C.3     1  UNL1        0.0165
     13 C          62.3225   86.5461   10.8329 C.3     1  UNL1        0.0016
     14 C          61.7318   88.4791   10.1892 C.3     1  UNL1        0.0715
     15 C          60.9272   89.4166    9.3384 C.3     1  UNL1        0.0196
     16 N          63.2977   91.2436   14.1130 N.3     1  UNL1       -0.1620
     17 H          62.7458   91.2361   14.9707 H       1  UNL1        0.1504
     18 S          64.6013   91.9084   14.4427 S.O2    1  UNL1        0.0964
     19 O          64.2070   91.9644   15.8888 O.2     1  UNL1       -0.1413
     20 O          64.9723   91.9650   13.7394 O.2     1  UNL1       -0.1413
     21 N          65.9049   92.5731   14.7724 N.3     1  UNL1       -0.1655
     22 H          66.4361   91.9137   15.3411 H       1  UNL1        0.1502
     23 C          66.8158   93.0258   13.6700 C.3     1  UNL1        0.1126
     24 C          68.2019   92.4625   13.5634 C.2     1  UNL1        0.0662
     25 O          69.2041   92.7260   14.6480 O.co2   1  UNL1       -0.5478
     26 O          68.5859   91.6356   12.3723 O.co2   1  UNL1       -0.5478
     27 C          66.3406   94.0420   12.6741 C.3     1  UNL1        0.0232
     28 C          66.1551   93.6541   11.2370 C.3     1  UNL1        0.0032
     29 C          66.9577   94.3331   10.1673 C.3     1  UNL1        0.0169
     30 C          67.8651   93.5278    9.2852 C.3     1  UNL1        0.0651
     31 N          69.2208   93.1177    9.7790 N.3     1  UNL1       -0.3211
     32 H          69.8006   93.9468    9.9087 H       1  UNL1        0.1189
     33 H          69.6590   92.4999    9.0958 H       1  UNL1        0.1189
     34 C          64.2776   88.8376   14.0813 C.3     1  UNL1        0.0268
     35 C          63.8963   87.8940   15.1834 C.3     1  UNL1        0.0019
     36 C          64.1890   86.4288   15.0510 C.3     1  UNL1        0.0001
     37 C          63.8077   85.4853   16.1530 C.3     1  UNL1        0.0000
     38 C          63.1337   86.0069   17.3873 C.3     1  UNL1        0.0000
     39 C          62.8409   87.4721   17.5196 C.3     1  UNL1        0.0000
     40 C          63.2222   88.4157   16.4177 C.3     1  UNL1        0.0001
@<TRIPOS>UNITY_ATOM_ATTR
25 1
charge -1
@<TRIPOS>BOND
     1     6     7    1
     2     7     8    1
     3     7     9    1
     4     9    10    1
     5    10    11    1
     6    11    12    1
     7    12    13    1
     8    12    14    1
     9    14     2    1
    10     2     3   am
    11     3     4    2
    12     3     1    1
    13     1    34    1
    14    34    35    1
    15    35    36    1
    16    36    37    1
    17    37    38    1
    18    38    39    1
    19    39    40    1
    20     1    16    1
    21    16    18    1
    22    18    19    2
    23    18    20    2
    24    18    21    1
    25    21    23    1
    26    23    27    1
    27    27    28    1
    28    28    29    1
    29    29    30    1
    30    30    31    1
    31    23    24    1
    32    24    25   ar
    33    24    26   ar
    34    14    15    1
    35    12     7    1
    36    40    35    1
    37    15     9    1
    38     2     5    1
    39    16    17    1
    40    21    22    1
    41    31    32    1
    42    31    33    1
@<TRIPOS>MOLECULE
*****
 40 42 0 0 0
SMALL
GASTEIGER

@<TRIPOS>ATOM
      1 C          63.0437   90.0039   12.7158 C.3     1  UNL1        0.1524
      2 N          61.7363   88.0701   11.5751 N.am    1  UNL1       -0.3048
      3 C          62.6034   89.2898   11.4724 C.2     1  UNL1        0.2383
      4 O          63.0302   89.7954   10.1262 O.2     1  UNL1       -0.2736
      5 H          61.4562   87.7383   12.4587 H       1  UNL1        0.1494
      6 C          62.5479   86.2861   10.2325 C.3     1  UNL1        0.0001
      7 C          61.2681   86.7675    9.6160 C.3     1  UNL1        0.0015
      8 C          61.8725   87.3515   10.8583 C.3     1  UNL1        0.0001
      9 C          61.2229   85.8152    8.4579 C.3     1  UNL1        0.0017
     10 C          59.9858   86.1106    7.6628 C.3     1  UNL1        0.0001
     11 C          59.2664   87.2455    8.3294 C.3     1  UNL1        0.0016
     12 C          60.0589   87.6515    9.5365 C.3     1  UNL1        0.0165
     13 C          59.7043   88.7488   10.4958 C.3     1  UNL1        0.0016
     14 C          61.2960   87.3560   10.3317 C.3     1  UNL1        0.0715
     15 C          62.0154   86.2211    9.6651 C.3     1  UNL1        0.0196
     16 N          62.8788   89.3488   14.0552 N.3     1  UNL1       -0.1620
     17 H          61.9267   88.9845   14.0896 H       1  UNL1        0.1504
     18 S          63.7873   88.2251   14.4575 S.O2    1  UNL1        0.0964
     19 O          63.6898   88.6591   15.8900 O.2     1  UNL1       -0.1413
     20 O          63.9543   87.8568   13.7705 O.2     1  UNL1       -0.1413
     21 N          64.6958   87.1013   14.8597 N.3     1  UNL1       -0.1655
     22 H          65.1471   87.3845   15.7295 H       1  UNL1        0.1502
     23 C          64.1350   85.7292   15.0897 C.3     1  UNL1        0.1126
     24 C          63.0373   85.5259   16.0915 C.2     1  UNL1        0.0662
     25 O          63.2244   85.9744   17.5106 O.co2   1  UNL1       -0.5478
     26 O          61.7524   84.8740   15.6742 O.co2   1  UNL1       -0.5478
     27 C          64.6720   84.5604   14.3178 C.3     1  UNL1        0.0232
     28 C          64.1286   84.2482   12.9551 C.3     1  UNL1        0.0032
     29 C          62.8640   83.4536   12.8159 C.3     1  UNL1        0.0169
     30 C          62.7567   82.0977   13.4482 C.3     1  UNL1        0.0651
     31 N          62.2585   81.9644   14.8568 N.3     1  UNL1       -0.3211
     32 H          62.9248   82.3984   15.4956 H       1  UNL1        0.1189
     33 H          62.1582   80.9764   15.0899 H       1  UNL1        0.1189
     34 C          63.6489   91.3730   12.6200 C.3     1  UNL1        0.0268
     35 C          65.0750   91.5930   13.0299 C.3     1  UNL1        0.0019
     36 C          66.0737   92.0962   12.0302 C.3     1  UNL1        0.0001
     37 C          67.4997   92.3162   12.4401 C.3     1  UNL1        0.0000
     38 C          67.9271   92.0330   13.8497 C.3     1  UNL1        0.0000
     39 C          66.9284   91.5298   14.8495 C.3     1  UNL1        0.0000
     40 C          65.5024   91.3098   14.4396 C.3     1  UNL1        0.0001
@<TRIPOS>UNITY_ATOM_ATTR
25 1
charge -1
@<TRIPOS>BOND
     1     6     7    1
     2     7     8    1
     3     7     9    1
     4     9    10    1
     5    10    11    1
     6    11    12    1
     7    12    13    1
     8    12    14    1
     9    14     2    1
    10     2     3   am
    11     3     4    2
    12     3     1    1
    13     1    34    1
    14    34    35    1
    15    35    36    1
    16    36    37    1
    17    37    38    1
    18    38    39    1
    19    39    40    1
    20     1    16    1
    21    16    18    1
    22    18    19    2
    23    18    20    2
    24    18    21    1
    25    21    23    1
    26    23    27    1
    27    27    28    1
    28    28    29    1
    29    29    30    1
    30    30    31    1
    31    23    24    1
    32    24    25   ar
    33    24    26   ar
    34    14    15    1
    35    12     7    1
    36    40    35    1
    37    15     9    1
    38     2     5    1
    39    16    17    1
    40    21    22    1
    41    31    32    1
    42    31    33    1
@<TRIPOS>MOLECULE
*****
 40 42 0 0 0
SMALL
GASTEIGER

@<TRIPOS>ATOM
      1 C          64.1012   90.9234   12.5874 C.3     1  UNL1        0.1524
      2 N          64.4013   89.3364   14.6224 N.am    1  UNL1       -0.3048
      3 C          63.5095   90.0215   13.6297 C.2     1  UNL1        0.2383
      4 O          62.0261   89.8046   13.6793 O.2     1  UNL1       -0.2736
      5 H          65.3749   89.4788   14.5898 H       1  UNL1        0.1494
      6 C          63.2420   89.6057   16.6785 C.3     1  UNL1        0.0001
      7 C          63.3779   88.1331   16.4277 C.3     1  UNL1        0.0015
      8 C          63.9025   89.1932   15.5053 C.3     1  UNL1        0.0001
      9 C          62.6794   87.6456   17.6624 C.3     1  UNL1        0.0017
     10 C          62.6875   86.1458   17.6379 C.3     1  UNL1        0.0001
     11 C          63.3911   85.7064   16.3882 C.3     1  UNL1        0.0016
     12 C          63.8178   86.9346   15.6403 C.3     1  UNL1        0.0165
     13 C          64.5549   86.9599   14.3341 C.3     1  UNL1        0.0016
     14 C          63.8097   88.4344   15.6647 C.3     1  UNL1        0.0715
     15 C          63.1061   88.8738   16.9144 C.3     1  UNL1        0.0196
     16 N          64.0856   90.5136   11.1445 N.3     1  UNL1       -0.1620
     17 H          64.3925   89.5415   11.1111 H       1  UNL1        0.1504
     18 S          62.8120   90.5929   10.3560 S.O2    1  UNL1        0.0964
     19 O          62.8008   89.0988   10.2240 O.2     1  UNL1       -0.1413
     20 O          62.6540   91.3735   10.3227 O.2     1  UNL1       -0.1413
     21 N          61.5384   90.6722    9.5676 N.3     1  UNL1       -0.1655
     22 H          61.7907   90.5465    8.5873 H       1  UNL1        0.1502
     23 C          60.4191   89.7152    9.8527 C.3     1  UNL1        0.1126
     24 C          59.6657   89.8063   11.1466 C.2     1  UNL1        0.0662
     25 O          58.9863   91.0874   11.5303 O.co2   1  UNL1       -0.5478
     26 O          59.5917   88.6164   12.0568 O.co2   1  UNL1       -0.5478
     27 C          60.0530   88.6671    8.8439 C.3     1  UNL1        0.0232
     28 C          59.8996   87.2371    9.2700 C.3     1  UNL1        0.0032
     29 C          61.1149   86.3889    9.5012 C.3     1  UNL1        0.0169
     30 C          61.4638   85.9408   10.8895 C.3     1  UNL1        0.0651
     31 N          62.0866   86.9055   11.8546 N.3     1  UNL1       -0.3211
     32 H          63.0143   87.1681   11.5219 H       1  UNL1        0.1189
     33 H          62.1662   86.4655   12.7714 H       1  UNL1        0.1189
     34 C          64.7084   92.2352   12.9880 C.3     1  UNL1        0.0268
     35 C          65.9243   92.2617   13.8663 C.3     1  UNL1        0.0019
     36 C          65.7910   92.6002   15.3215 C.3     1  UNL1        0.0001
     37 C          67.0068   92.6268   16.1997 C.3     1  UNL1        0.0000
     38 C          68.3557   92.3149   15.6227 C.3     1  UNL1        0.0000
     39 C          68.4890   91.9765   14.1674 C.3     1  UNL1        0.0000
     40 C          67.2732   91.9499   13.2892 C.3     1  UNL1        0.0001
@<TRIPOS>UNITY_ATOM_ATTR
25 1
charge -1
@<TRIPOS>BOND
     1     6     7    1
     2     7     8    1
     3     7     9    1
     4     9    10    1
     5    10    11    1
     6    11    12    1
     7    12    13    1
     8    12    14    1
     9    14     2    1
    10     2     3   am
    11     3     4    2
    12     3     1    1
    13     1    34    1
    14    34    35    1
    15    35    36    1
    16    36    37    1
    17    37    38    1
    18    38    39    1
    19    39    40    1
    20     1    16    1
    21    16    18    1
    22    18    19    2
    23    18    20    2
    24    18    21    1
    25    21    23    1
    26    23    27    1
    27    27    28    1
    28    28    29    1
    29    29    30    1
    30    30    31    1
    31    23    24    1
    32    24    25   ar
    33    24    26   ar
    34    14    15    1
    35    12     7    1
    36    40    35    1
    37    15     9    1
    38     2     5    1
    39    16    17    1
    40    21    22    1
    41    31    32    1
    42    31    33    1
@<TRIPOS>MOLECULE
*****
 40 42 0 0 0
SMALL
GASTEIGER

@<TRIPOS>ATOM
      1 C          63.3852   87.2371   12.8404 C.3     1  UNL1        0.1524
      2 N          63.8796   84.6870   12.8893 N.am    1  UNL1       -0.3048
      3 C          63.0010   85.8324   12.4814 C.2     1  UNL1        0.2383
      4 O          61.7383   85.5729   11.7145 O.2     1  UNL1       -0.2736
      5 H          64.7084   84.8574   13.3926 H       1  UNL1        0.1494
      6 C          64.1129   83.2651   11.0004 C.3     1  UNL1        0.0001
      7 C          63.3879   82.4903   12.0605 C.3     1  UNL1        0.0015
      8 C          63.8545   83.9060   12.2274 C.3     1  UNL1        0.0001
      9 C          63.2139   81.2088   11.3005 C.3     1  UNL1        0.0017
     10 C          62.4871   80.2400   12.1855 C.3     1  UNL1        0.0001
     11 C          62.2119   80.9227   13.4925 C.3     1  UNL1        0.0016
     12 C          62.7687   82.3134   13.4152 C.3     1  UNL1        0.0165
     13 C          62.7154   83.3460   14.5020 C.3     1  UNL1        0.0016
     14 C          63.4955   83.2822   12.5303 C.3     1  UNL1        0.0715
     15 C          63.7706   82.5996   11.2233 C.3     1  UNL1        0.0196
     16 N          62.8431   88.3891   12.0471 N.3     1  UNL1       -0.1620
     17 H          61.8277   88.2926   12.0441 H       1  UNL1        0.1504
     18 S          63.1430   89.7971   12.4686 S.O2    1  UNL1        0.0964
     19 O          61.9765   89.7635   13.4109 O.2     1  UNL1       -0.1413
     20 O          63.7831   89.9954   12.0368 O.2     1  UNL1       -0.1413
     21 N          63.4429   91.2051   12.8900 N.3     1  UNL1       -0.1655
     22 H          62.9260   91.3703   13.7537 H       1  UNL1        0.1502
     23 C          64.8598   91.6256   13.1461 C.3     1  UNL1        0.1126
     24 C          65.5792   92.4843   12.1485 C.2     1  UNL1        0.0662
     25 O          66.8964   93.1065   12.5063 O.co2   1  UNL1       -0.5478
     26 O          64.9814   92.7209   10.7933 O.co2   1  UNL1       -0.5478
     27 C          65.5573   91.1874   14.3997 C.3     1  UNL1        0.0232
     28 C          65.5986   92.0966   15.5920 C.3     1  UNL1        0.0032
     29 C          66.8895   92.7441   15.9971 C.3     1  UNL1        0.0169
     30 C          68.1933   92.0575   15.7170 C.3     1  UNL1        0.0651
     31 N          68.9826   92.4173   14.4933 N.3     1  UNL1       -0.3211
     32 H          68.4624   92.1424   13.6601 H       1  UNL1        0.1189
     33 H          69.8785   91.9299   14.5110 H       1  UNL1        0.1189
     34 C          64.3116   87.4900   13.9928 C.3     1  UNL1        0.0268
     35 C          63.8028   87.3888   15.4003 C.3     1  UNL1        0.0019
     36 C          63.6444   86.0440   16.0456 C.3     1  UNL1        0.0001
     37 C          63.1357   85.9428   17.4531 C.3     1  UNL1        0.0000
     38 C          62.7853   87.1863   18.2152 C.3     1  UNL1        0.0000
     39 C          62.9437   88.5311   17.5698 C.3     1  UNL1        0.0000
     40 C          63.4524   88.6324   16.1624 C.3     1  UNL1        0.0001
@<TRIPOS>UNITY_ATOM_ATTR
25 1
charge -1
@<TRIPOS>BOND
     1     6     7    1
     2     7     8    1
     3     7     9    1
     4     9    10    1
     5    10    11    1
     6    11    12    1
     7    12    13    1
     8    12    14    1
     9    14     2    1
    10     2     3   am
    11     3     4    2
    12     3     1    1
    13     1    34    1
    14    34    35    1
    15    35    36    1
    16    36    37    1
    17    37    38    1
    18    38    39    1
    19    39    40    1
    20     1    16    1
    21    16    18    1
    22    18    19    2
    23    18    20    2
    24    18    21    1
    25    21    23    1
    26    23    27    1
    27    27    28    1
    28    28    29    1
    29    29    30    1
    30    30    31    1
    31    23    24    1
    32    24    25   ar
    33    24    26   ar
    34    14    15    1
    35    12     7    1
    36    40    35    1
    37    15     9    1
    38     2     5    1
    39    16    17    1
    40    21    22    1
    41    31    32    1
    42    31    33    1
@<TRIPOS>MOLECULE
*****
 40 42 0 0 0
SMALL
GASTEIGER

@<TRIPOS>ATOM
      1 C          62.7618   87.4327   11.8783 C.3     1  UNL1        0.1524
      2 N          63.4196   85.0273   12.6070 N.am    1  UNL1       -0.3048
      3 C          62.4552   85.9659   11.9444 C.2     1  UNL1        0.2383
      4 O          61.1843   85.4377   11.3480 O.2     1  UNL1       -0.2736
      5 H          64.2538   85.3741   12.9985 H       1  UNL1        0.1494
      6 C          63.6397   83.1531   11.1636 C.3     1  UNL1        0.0001
      7 C          63.0333   82.6653   12.4458 C.3     1  UNL1        0.0015
      8 C          63.4099   84.0938   12.1861 C.3     1  UNL1        0.0001
      9 C          62.9041   81.2169   12.0780 C.3     1  UNL1        0.0017
     10 C          62.2990   80.4944   13.2450 C.3     1  UNL1        0.0001
     11 C          62.0542   81.4963   14.3341 C.3     1  UNL1        0.0016
     12 C          62.5080   82.8380   13.8402 C.3     1  UNL1        0.0165
     13 C          62.4473   84.1262   14.6063 C.3     1  UNL1        0.0016
     14 C          63.1131   83.5605   12.6732 C.3     1  UNL1        0.0715
     15 C          63.3579   82.5586   11.5841 C.3     1  UNL1        0.0196
     16 N          63.4029   88.1185   13.0482 N.3     1  UNL1       -0.1620
     17 H          64.3395   87.7259   13.1427 H       1  UNL1        0.1504
     18 S          63.5565   89.6106   13.0510 S.O2    1  UNL1        0.0964
     19 O          62.8887   89.6769   14.3925 O.2     1  UNL1       -0.1413
     20 O          63.9205   89.7683   12.3596 O.2     1  UNL1       -0.1413
     21 N          63.7101   91.1028   13.0538 N.3     1  UNL1       -0.1655
     22 H          63.0949   91.4607   13.7844 H       1  UNL1        0.1502
     23 C          65.0589   91.7174   13.2837 C.3     1  UNL1        0.1126
     24 C          65.6416   92.6504   12.2639 C.2     1  UNL1        0.0662
     25 O          65.0080   92.7718   10.9097 O.co2   1  UNL1       -0.5478
     26 O          66.8578   93.4622   12.5983 O.co2   1  UNL1       -0.5478
     27 C          65.8251   91.3990   14.5334 C.3     1  UNL1        0.0232
     28 C          65.8518   92.3806   15.6673 C.3     1  UNL1        0.0032
     29 C          67.1510   92.9944   16.0975 C.3     1  UNL1        0.0169
     30 C          68.4429   92.2813   15.8285 C.3     1  UNL1        0.0651
     31 N          69.1397   92.4626   14.5127 N.3     1  UNL1       -0.3211
     32 H          68.5674   92.0659   13.7674 H       1  UNL1        0.1189
     33 H          70.0422   91.9879   14.5376 H       1  UNL1        0.1189
     34 C          62.4273   88.2138   10.6421 C.3     1  UNL1        0.0268
     35 C          61.5779   87.5956    9.5713 C.3     1  UNL1        0.0019
     36 C          62.1244   86.4791    8.7317 C.3     1  UNL1        0.0001
     37 C          61.2751   85.8610    7.6609 C.3     1  UNL1        0.0000
     38 C          59.8793   86.3594    7.4297 C.3     1  UNL1        0.0000
     39 C          59.3329   87.4759    8.2692 C.3     1  UNL1        0.0000
     40 C          60.1822   88.0940    9.3400 C.3     1  UNL1        0.0001
@<TRIPOS>UNITY_ATOM_ATTR
25 1
charge -1
@<TRIPOS>BOND
     1     6     7    1
     2     7     8    1
     3     7     9    1
     4     9    10    1
     5    10    11    1
     6    11    12    1
     7    12    13    1
     8    12    14    1
     9    14     2    1
    10     2     3   am
    11     3     4    2
    12     3     1    1
    13     1    34    1
    14    34    35    1
    15    35    36    1
    16    36    37    1
    17    37    38    1
    18    38    39    1
    19    39    40    1
    20     1    16    1
    21    16    18    1
    22    18    19    2
    23    18    20    2
    24    18    21    1
    25    21    23    1
    26    23    27    1
    27    27    28    1
    28    28    29    1
    29    29    30    1
    30    30    31    1
    31    23    24    1
    32    24    25   ar
    33    24    26   ar
    34    14    15    1
    35    12     7    1
    36    40    35    1
    37    15     9    1
    38     2     5    1
    39    16    17    1
    40    21    22    1
    41    31    32    1
    42    31    33    1
@<TRIPOS>MOLECULE
*****
 40 42 0 0 0
SMALL
GASTEIGER

@<TRIPOS>ATOM
      1 C          63.0791   89.8156   12.6219 C.3     1  UNL1        0.1524
      2 N          62.3138   88.8998   10.3142 N.am    1  UNL1       -0.3048
      3 C          62.0062   89.2485   11.7403 C.2     1  UNL1        0.2383
      4 O          60.6256   89.0302   12.2848 O.2     1  UNL1       -0.2736
      5 H          63.2199   89.0431    9.9569 H       1  UNL1        0.1494
      6 C          60.3937   89.7267    9.1857 C.3     1  UNL1        0.0001
      7 C          60.4899   88.2585    8.8942 C.3     1  UNL1        0.0015
      8 C          61.4645   89.0090    9.7525 C.3     1  UNL1        0.0001
      9 C          59.2747   88.1385    8.0230 C.3     1  UNL1        0.0017
     10 C          59.1541   86.7073    7.5903 C.3     1  UNL1        0.0001
     11 C          60.2947   85.9428    8.1940 C.3     1  UNL1        0.0016
     12 C          61.1203   86.9016    8.9999 C.3     1  UNL1        0.0165
     13 C          62.3588   86.5627    9.7753 C.3     1  UNL1        0.0016
     14 C          61.2409   88.3327    9.4326 C.3     1  UNL1        0.0715
     15 C          60.1003   89.0972    8.8288 C.3     1  UNL1        0.0196
     16 N          63.2741   89.2760   14.0079 N.3     1  UNL1       -0.1620
     17 H          62.3636   89.3069   14.4667 H       1  UNL1        0.1504
     18 S          63.8111   87.8893   14.2042 S.O2    1  UNL1        0.0964
     19 O          63.6370   88.0318   15.6872 O.2     1  UNL1       -0.1413
     20 O          63.9700   87.6375   13.4647 O.2     1  UNL1       -0.1413
     21 N          64.3482   86.5026   14.4005 N.3     1  UNL1       -0.1655
     22 H          64.6969   86.4546   15.3578 H       1  UNL1        0.1502
     23 C          63.4508   85.3164   14.2066 C.3     1  UNL1        0.1126
     24 C          62.9207   84.5743   15.3976 C.2     1  UNL1        0.0662
     25 O          63.3264   83.1499   15.6353 O.co2   1  UNL1       -0.5478
     26 O          61.9848   85.2566   16.3507 O.co2   1  UNL1       -0.5478
     27 C          63.0835   84.8722   12.8217 C.3     1  UNL1        0.0232
     28 C          63.5883   83.5612   12.2959 C.3     1  UNL1        0.0032
     29 C          62.6280   82.4401   12.0296 C.3     1  UNL1        0.0169
     30 C          62.9224   81.0622   12.5442 C.3     1  UNL1        0.0651
     31 N          63.4693   80.8798   13.9290 N.3     1  UNL1       -0.3211
     32 H          64.4039   81.2850   13.9816 H       1  UNL1        0.1189
     33 H          63.5174   79.8846   14.1472 H       1  UNL1        0.1189
     34 C          63.9571   90.9223   12.1175 C.3     1  UNL1        0.0268
     35 C          64.8523   91.6615   13.0673 C.3     1  UNL1        0.0019
     36 C          64.8943   91.2720   14.5153 C.3     1  UNL1        0.0001
     37 C          65.7895   92.0112   15.4652 C.3     1  UNL1        0.0000
     38 C          66.6427   93.1399   14.9671 C.3     1  UNL1        0.0000
     39 C          66.6007   93.5294   13.5191 C.3     1  UNL1        0.0000
     40 C          65.7055   92.7902   12.5693 C.3     1  UNL1        0.0001
@<TRIPOS>UNITY_ATOM_ATTR
25 1
charge -1
@<TRIPOS>BOND
     1     6     7    1
     2     7     8    1
     3     7     9    1
     4     9    10    1
     5    10    11    1
     6    11    12    1
     7    12    13    1
     8    12    14    1
     9    14     2    1
    10     2     3   am
    11     3     4    2
    12     3     1    1
    13     1    34    1
    14    34    35    1
    15    35    36    1
    16    36    37    1
    17    37    38    1
    18    38    39    1
    19    39    40    1
    20     1    16    1
    21    16    18    1
    22    18    19    2
    23    18    20    2
    24    18    21    1
    25    21    23    1
    26    23    27    1
    27    27    28    1
    28    28    29    1
    29    29    30    1
    30    30    31    1
    31    23    24    1
    32    24    25   ar
    33    24    26   ar
    34    14    15    1
    35    12     7    1
    36    40    35    1
    37    15     9    1
    38     2     5    1
    39    16    17    1
    40    21    22    1
    41    31    32    1
    42    31    33    1
@<TRIPOS>MOLECULE
*****
 40 42 0 0 0
SMALL
GASTEIGER

@<TRIPOS>ATOM
      1 C          62.7950   87.8180   11.9144 C.3     1  UNL1        0.1524
      2 N          63.4468   85.4253   12.6887 N.am    1  UNL1       -0.3048
      3 C          62.4141   86.3946   12.1945 C.2     1  UNL1        0.2383
      4 O          61.0007   85.9403   11.9804 O.2     1  UNL1       -0.2736
      5 H          64.3745   85.7234   12.8291 H       1  UNL1        0.1494
      6 C          62.6030   84.1987   14.5401 C.3     1  UNL1        0.0001
      7 C          62.7709   83.2368   13.4015 C.3     1  UNL1        0.0015
      8 C          63.0961   84.6987   13.3195 C.3     1  UNL1        0.0001
      9 C          62.2936   81.9990   14.1016 C.3     1  UNL1        0.0017
     10 C          62.3713   80.8582   13.1308 C.3     1  UNL1        0.0001
     11 C          62.8966   81.3909   11.8307 C.3     1  UNL1        0.0016
     12 C          63.1436   82.8609   11.9980 C.3     1  UNL1        0.0165
     13 C          63.6707   83.7916   10.9464 C.3     1  UNL1        0.0016
     14 C          63.0659   84.0017   12.9688 C.3     1  UNL1        0.0715
     15 C          62.5406   83.4691   14.2689 C.3     1  UNL1        0.0196
     16 N          63.5411   88.6118   12.9457 N.3     1  UNL1       -0.1620
     17 H          64.4968   88.2556   12.9567 H       1  UNL1        0.1504
     18 S          63.6363   90.1034   12.8197 S.O2    1  UNL1        0.0964
     19 O          63.2618   90.2494   14.2648 O.2     1  UNL1       -0.1413
     20 O          63.8417   90.2200   12.0584 O.2     1  UNL1       -0.1413
     21 N          63.7315   91.5951   12.6937 N.3     1  UNL1       -0.1655
     22 H          63.4791   91.9840   13.6023 H       1  UNL1        0.1502
     23 C          65.0294   92.2327   12.2952 C.3     1  UNL1        0.1126
     24 C          66.1099   92.4357   13.3156 C.2     1  UNL1        0.0662
     25 O          67.5509   92.3851   12.9024 O.co2   1  UNL1       -0.5478
     26 O          65.7493   92.6893   14.7494 O.co2   1  UNL1       -0.5478
     27 C          65.2468   92.6675   10.8760 C.3     1  UNL1        0.0232
     28 C          65.6016   94.0934   10.5744 C.3     1  UNL1        0.0032
     29 C          66.9767   94.4362   10.0830 C.3     1  UNL1        0.0169
     30 C          67.7913   93.4079    9.3558 C.3     1  UNL1        0.0651
     31 N          69.0248   92.8403    9.9933 N.3     1  UNL1       -0.3211
     32 H          69.7255   93.5749   10.0916 H       1  UNL1        0.1189
     33 H          69.3964   92.0921    9.4081 H       1  UNL1        0.1189
     34 C          62.4298   88.4479   10.6029 C.3     1  UNL1        0.0268
     35 C          61.6346   87.6730    9.5943 C.3     1  UNL1        0.0019
     36 C          62.2566   86.5074    8.8841 C.3     1  UNL1        0.0001
     37 C          61.4614   85.7324    7.8755 C.3     1  UNL1        0.0000
     38 C          60.0443   86.1231    7.5772 C.3     1  UNL1        0.0000
     39 C          59.4223   87.2888    8.2874 C.3     1  UNL1        0.0000
     40 C          60.2175   88.0637    9.2960 C.3     1  UNL1        0.0001
@<TRIPOS>UNITY_ATOM_ATTR
25 1
charge -1
@<TRIPOS>BOND
     1     6     7    1
     2     7     8    1
     3     7     9    1
     4     9    10    1
     5    10    11    1
     6    11    12    1
     7    12    13    1
     8    12    14    1
     9    14     2    1
    10     2     3   am
    11     3     4    2
    12     3     1    1
    13     1    34    1
    14    34    35    1
    15    35    36    1
    16    36    37    1
    17    37    38    1
    18    38    39    1
    19    39    40    1
    20     1    16    1
    21    16    18    1
    22    18    19    2
    23    18    20    2
    24    18    21    1
    25    21    23    1
    26    23    27    1
    27    27    28    1
    28    28    29    1
    29    29    30    1
    30    30    31    1
    31    23    24    1
    32    24    25   ar
    33    24    26   ar
    34    14    15    1
    35    12     7    1
    36    40    35    1
    37    15     9    1
    38     2     5    1
    39    16    17    1
    40    21    22    1
    41    31    32    1
    42    31    33    1
@<TRIPOS>MOLECULE
*****
 40 42 0 0 0
SMALL
GASTEIGER

@<TRIPOS>ATOM
      1 C          62.0831   88.3708   11.3707 C.3     1  UNL1        0.1524
      2 N          62.2016   85.7786   11.2437 N.am    1  UNL1       -0.3048
      3 C          62.6629   87.0721   11.8472 C.2     1  UNL1        0.2383
      4 O          63.7038   87.0668   12.9271 O.2     1  UNL1       -0.2736
      5 H          61.5184   85.7821   10.5349 H       1  UNL1        0.1494
      6 C          62.2827   84.5743   13.2900 C.3     1  UNL1        0.0001
      7 C          63.0195   83.7669   12.2629 C.3     1  UNL1        0.0015
      8 C          62.3707   85.0899   11.9826 C.3     1  UNL1        0.0001
      9 C          63.4050   82.6135   13.1410 C.3     1  UNL1        0.0017
     10 C          64.1803   81.6359   12.3084 C.3     1  UNL1        0.0001
     11 C          64.2740   82.1851   10.9157 C.3     1  UNL1        0.0016
     12 C          63.5567   83.5022   10.8876 C.3     1  UNL1        0.0165
     13 C          63.4034   84.3973    9.6938 C.3     1  UNL1        0.0016
     14 C          62.7814   84.4798   11.7202 C.3     1  UNL1        0.0715
     15 C          62.6876   83.9306   13.1129 C.3     1  UNL1        0.0196
     16 N          62.9698   89.5676   11.1926 N.3     1  UNL1       -0.1620
     17 H          62.5767   90.1138   10.4260 H       1  UNL1        0.1504
     18 S          63.1868   90.5166   12.3337 S.O2    1  UNL1        0.0964
     19 O          64.0881   91.3486   11.4703 O.2     1  UNL1       -0.1413
     20 O          62.7500   90.2097   12.9256 O.2     1  UNL1       -0.1413
     21 N          63.4039   91.4657   13.4748 N.3     1  UNL1       -0.1655
     22 H          62.4826   91.6889   13.8515 H       1  UNL1        0.1502
     23 C          64.2597   91.0577   14.6371 C.3     1  UNL1        0.1126
     24 C          63.6812   91.0285   16.0208 C.2     1  UNL1        0.0662
     25 O          63.7584   92.2472   16.8919 O.co2   1  UNL1       -0.5478
     26 O          63.0253   89.7806   16.5333 O.co2   1  UNL1       -0.5478
     27 C          65.6942   90.6789   14.4159 C.3     1  UNL1        0.0232
     28 C          66.7856   91.6590   14.7292 C.3     1  UNL1        0.0032
     29 C          66.4956   93.1306   14.7269 C.3     1  UNL1        0.0169
     30 C          66.5685   93.9075   13.4459 C.3     1  UNL1        0.0651
     31 N          65.6371   93.5804   12.3164 N.3     1  UNL1       -0.3211
     32 H          65.8467   92.6472   11.9623 H       1  UNL1        0.1189
     33 H          65.7574   94.2630   11.5681 H       1  UNL1        0.1189
     34 C          60.6166   88.4728   11.0722 C.3     1  UNL1        0.0268
     35 C          60.1248   88.3120    9.6642 C.3     1  UNL1        0.0019
     36 C          59.6030   86.9849    9.1990 C.3     1  UNL1        0.0001
     37 C          59.1112   86.8240    7.7911 C.3     1  UNL1        0.0000
     38 C          59.1413   87.9904    6.8483 C.3     1  UNL1        0.0000
     39 C          59.6631   89.3175    7.3136 C.3     1  UNL1        0.0000
     40 C          60.1549   89.4783    8.7215 C.3     1  UNL1        0.0001
@<TRIPOS>UNITY_ATOM_ATTR
25 1
charge -1
@<TRIPOS>BOND
     1     6     7    1
     2     7     8    1
     3     7     9    1
     4     9    10    1
     5    10    11    1
     6    11    12    1
     7    12    13    1
     8    12    14    1
     9    14     2    1
    10     2     3   am
    11     3     4    2
    12     3     1    1
    13     1    34    1
    14    34    35    1
    15    35    36    1
    16    36    37    1
    17    37    38    1
    18    38    39    1
    19    39    40    1
    20     1    16    1
    21    16    18    1
    22    18    19    2
    23    18    20    2
    24    18    21    1
    25    21    23    1
    26    23    27    1
    27    27    28    1
    28    28    29    1
    29    29    30    1
    30    30    31    1
    31    23    24    1
    32    24    25   ar
    33    24    26   ar
    34    14    15    1
    35    12     7    1
    36    40    35    1
    37    15     9    1
    38     2     5    1
    39    16    17    1
    40    21    22    1
    41    31    32    1
    42    31    33    1
