@<TRIPOS>MOLECULE
*****
 58 64 0 0 0
SMALL
GASTEIGER

@<TRIPOS>ATOM
      1 N          62.8694   84.1447    9.6068 N.3     1  UNL1       -0.1862
      2 C          62.2010   84.1971    8.2650 C.3     1  UNL1        0.1775
      3 C          61.3972   85.4018    7.8741 C.2     1  UNL1        0.2452
      4 O          60.7287   85.4541    6.5322 O.2     1  UNL1       -0.2732
      5 N          61.2620   86.5540    8.8248 N.am    1  UNL1       -0.2541
      6 C          60.4583   87.7586    8.4339 C.3     1  UNL1        0.1577
      7 C          60.3231   88.9109    9.3847 C.2     1  UNL1        0.2445
      8 O          59.5193   90.1155    8.9937 O.2     1  UNL1       -0.2731
      9 N          60.9916   88.8585   10.7265 N.am    1  UNL1       -0.2705
     10 C          61.7953   87.6538   11.1174 C.3     1  UNL1        0.1359
     11 C          61.9305   86.5016   10.1666 C.3     1  UNL1        0.1908
     12 N          62.7342   85.2969   10.5575 N.am    1  UNL1       -0.1863
     13 C          63.4027   85.2445   11.8994 C.2     1  UNL1        0.3191
     14 O          63.2675   86.3967   12.8501 O.2     1  UNL1       -0.2512
     15 N          64.2065   84.0399   12.2903 N.am    1  UNL1       -0.2836
     16 H          64.2952   83.2836   11.6663 H       1  UNL1        0.1513
     17 C          63.6732   82.9400    9.9977 C.3     1  UNL1        0.1188
     18 C          62.7485   81.1964   11.6873 C.2     1  UNL1       -0.0034
     19 C          62.9847   81.6361   10.2728 C.2     1  UNL1       -0.0071
     20 C          59.7898   87.8111    7.0921 C.3     1  UNL1        0.0556
     21 C          59.6210   89.1253    6.3891 C.ar    1  UNL1       -0.0198
     22 C          60.8166   89.8312    5.8215 C.ar    1  UNL1       -0.0011
     23 C          60.6478   91.1455    5.1185 C.ar    1  UNL1        0.0363
     24 C          59.2835   91.7538    4.9831 C.ar    1  UNL1        0.1337
     25 O          59.1147   93.0681    4.2800 O.3     1  UNL1       -0.5055
     26 C          58.0878   91.0479    5.5507 C.ar    1  UNL1        0.0363
     27 C          58.2566   89.7337    6.2537 C.ar    1  UNL1       -0.0011
     28 H          59.8616   93.5090    3.9255 H       1  UNL1        0.2922
     29 C          60.8564   90.0107   11.6773 C.3     1  UNL1        0.1217
     30 C          61.7990   90.1409   12.8369 C.ar    1  UNL1        0.0135
     31 C          61.3996   89.6292   14.1892 C.ar    1  UNL1       -0.0012
     32 C          62.3421   89.7594   15.3487 C.ar    1  UNL1       -0.0002
     33 C          63.6841   90.4011   15.1560 C.ar    1  UNL1        0.0016
     34 C          64.0835   90.9128   13.8037 C.ar    1  UNL1        0.0214
     35 C          65.3310   91.5863   13.3136 C.ar    1  UNL1        0.0721
     36 C          65.1594   91.8724   11.8512 C.ar    1  UNL1        0.0805
     37 N          63.8059   91.3758   11.4375 N.ar    1  UNL1       -0.3241
     38 C          63.2202   91.4578   10.0590 C.3     1  UNL1        0.1305
     39 C          63.1410   90.7826   12.6441 C.ar    1  UNL1        0.0577
     40 C          66.5382   91.9159   14.1409 C.2     1  UNL1        0.2506
     41 O          67.1908   90.8517   14.9725 O.2     1  UNL1       -0.2699
     42 N          67.0927   93.3096   14.1364 N.am    1  UNL1       -0.2723
     43 C          68.2998   93.6392   14.9635 C.3     1  UNL1        0.1152
     44 C          66.4400   94.3738   13.3047 C.3     1  UNL1        0.1182
     45 C          66.0815   94.0939   11.8754 C.3     1  UNL1        0.1287
     46 N          66.6556   94.9407   10.7784 N.ar    1  UNL1       -0.3119
     47 C          66.5151   96.4284   10.6477 C.ar    1  UNL1        0.0978
     48 C          67.2437   96.8558    9.4082 C.ar    1  UNL1        0.1188
     49 N          67.8346   95.6322    8.7728 N.ar    1  UNL1       -0.2293
     50 C          67.4711   94.4486    9.6196 C.ar    1  UNL1        0.1209
     51 C          67.8557   93.0233    9.3542 C.3     1  UNL1        0.0718
     52 C          64.8750   83.9874   13.6321 C.3     1  UNL1        0.1177
     53 C          64.2526   84.6807   14.8077 C.ar    1  UNL1       -0.0025
     54 C          64.7680   86.0186   15.2485 C.ar    1  UNL1       -0.0026
     55 C          64.1456   86.7118   16.4242 C.ar    1  UNL1       -0.0003
     56 C          63.0079   86.0672   17.1589 C.ar    1  UNL1       -0.0000
     57 C          62.4924   84.7292   16.7181 C.ar    1  UNL1       -0.0003
     58 C          63.1148   84.0360   15.5425 C.ar    1  UNL1       -0.0026
@<TRIPOS>BOND
     1    18    19    2
     2    19    17    1
     3    17     1    1
     4     1     2    1
     5     2     3    1
     6     3     4    2
     7     3     5   am
     8     5     6    1
     9     6    20    1
    10    20    21    1
    11    21    22   ar
    12    22    23   ar
    13    23    24   ar
    14    24    25    1
    15    24    26   ar
    16    26    27   ar
    17     6     7    1
    18     7     8    2
    19     7     9   am
    20     9    29    1
    21    29    30    1
    22    30    31   ar
    23    31    32   ar
    24    32    33   ar
    25    33    34   ar
    26    34    35   ar
    27    35    40    1
    28    40    41    2
    29    40    42   am
    30    42    43    1
    31    42    44    1
    32    44    45    1
    33    45    46    1
    34    46    47   ar
    35    47    48   ar
    36    48    49   ar
    37    49    50   ar
    38    50    51    1
    39    35    36   ar
    40    36    37   ar
    41    37    38    1
    42    37    39   ar
    43     9    10    1
    44    11    10    1
    45    11    12    1
    46    12    13   am
    47    13    14    2
    48    13    15   am
    49    15    52    1
    50    52    53    1
    51    53    54   ar
    52    54    55   ar
    53    55    56   ar
    54    56    57   ar
    55    57    58   ar
    56    12     1    1
    57    58    53   ar
    58    11     5    1
    59    27    21   ar
    60    39    30   ar
    61    39    34   ar
    62    50    46   ar
    63    25    28    1
    64    15    16    1
@<TRIPOS>MOLECULE
*****
 58 64 0 0 0
SMALL
GASTEIGER

@<TRIPOS>ATOM
      1 N          61.2885   85.8038    8.0007 N.3     1  UNL1       -0.1862
      2 C          62.2422   84.7486    8.4770 C.3     1  UNL1        0.1775
      3 C          62.9036   84.8849    9.8164 C.2     1  UNL1        0.2452
      4 O          63.8574   83.8296   10.2927 O.2     1  UNL1       -0.2732
      5 N          62.6114   86.0764   10.6794 N.am    1  UNL1       -0.2541
      6 C          63.2728   86.2126   12.0188 C.3     1  UNL1        0.1577
      7 C          62.9805   87.4041   12.8819 C.2     1  UNL1        0.2445
      8 O          63.6419   87.5404   14.2213 O.2     1  UNL1       -0.2731
      9 N          62.0268   88.4594   12.4055 N.am    1  UNL1       -0.2705
     10 C          61.3654   88.3232   11.0662 C.3     1  UNL1        0.1359
     11 C          61.6577   87.1316   10.2031 C.3     1  UNL1        0.1908
     12 N          60.9963   86.9953    8.8637 N.am    1  UNL1       -0.1863
     13 C          60.0425   88.0506    8.3874 C.2     1  UNL1        0.3191
     14 O          59.7503   89.2421    9.2504 O.2     1  UNL1       -0.2512
     15 N          59.3811   87.9144    7.0480 N.am    1  UNL1       -0.2836
     16 H          59.5729   87.1323    6.4816 H       1  UNL1        0.1513
     17 C          60.6271   85.6676    6.6613 C.3     1  UNL1        0.1188
     18 C          62.1694   84.2431    5.1309 C.2     1  UNL1       -0.0034
     19 C          60.8580   84.4390    5.8323 C.2     1  UNL1       -0.0071
     20 C          64.2265   85.1574   12.4952 C.3     1  UNL1        0.0556
     21 C          63.7007   83.8753   13.0694 C.ar    1  UNL1       -0.0198
     22 C          62.4490   83.8814   13.8960 C.ar    1  UNL1       -0.0011
     23 C          61.9233   82.5993   14.4702 C.ar    1  UNL1        0.0363
     24 C          62.6491   81.3111   14.2179 C.ar    1  UNL1        0.1337
     25 O          62.1234   80.0290   14.7922 O.3     1  UNL1       -0.5055
     26 C          63.9009   81.3050   13.3913 C.ar    1  UNL1        0.0363
     27 C          64.4267   82.5871   12.8171 C.ar    1  UNL1       -0.0011
     28 H          61.3415   80.0328   15.3085 H       1  UNL1        0.2922
     29 C          61.7345   89.6509   13.2686 C.3     1  UNL1        0.1217
     30 C          62.7085   90.0637   14.3321 C.ar    1  UNL1        0.0135
     31 C          62.4046   89.7887   15.7750 C.ar    1  UNL1       -0.0012
     32 C          63.3785   90.2015   16.8385 C.ar    1  UNL1       -0.0002
     33 C          64.6564   90.8892   16.4591 C.ar    1  UNL1        0.0016
     34 C          64.9603   91.1642   15.0161 C.ar    1  UNL1        0.0214
     35 C          66.1298   91.8205   14.3441 C.ar    1  UNL1        0.0721
     36 C          65.8787   91.8132   12.8654 C.ar    1  UNL1        0.0805
     37 N          64.5540   91.1526   12.6234 N.ar    1  UNL1       -0.3241
     38 C          63.9099   90.9318   11.2869 C.3     1  UNL1        0.1305
     39 C          63.9864   90.7515   13.9527 C.ar    1  UNL1        0.0577
     40 C          67.3384   92.3848   15.0305 C.2     1  UNL1        0.2506
     41 O          68.1939   91.5016   15.8896 O.2     1  UNL1       -0.2699
     42 N          67.6914   93.8324   14.8577 N.am    1  UNL1       -0.2723
     43 C          68.8999   94.3968   15.5440 C.3     1  UNL1        0.1152
     44 C          66.8359   94.7156   13.9986 C.3     1  UNL1        0.1182
     45 C          66.3179   94.2096   12.6850 C.3     1  UNL1        0.1287
     46 N          66.5311   95.0117   11.4355 N.ar    1  UNL1       -0.3119
     47 C          66.1753   96.4563   11.2436 C.ar    1  UNL1        0.0978
     48 C          66.5619   96.8475    9.8480 C.ar    1  UNL1        0.1188
     49 N          67.1567   95.6447    9.1774 N.ar    1  UNL1       -0.2293
     50 C          67.1377   94.5102   10.1585 C.ar    1  UNL1        0.1209
     51 C          67.6374   93.1185    9.9068 C.3     1  UNL1        0.0718
     52 C          58.4274   88.9696    6.5717 C.3     1  UNL1        0.1177
     53 C          58.9315   90.1229    5.7558 C.ar    1  UNL1       -0.0025
     54 C          60.3941   90.2388    5.4443 C.ar    1  UNL1       -0.0026
     55 C          60.8982   91.3921    4.6284 C.ar    1  UNL1       -0.0003
     56 C          59.9395   92.4297    4.1240 C.ar    1  UNL1       -0.0000
     57 C          58.4768   92.3139    4.4356 C.ar    1  UNL1       -0.0003
     58 C          57.9727   91.1606    5.2515 C.ar    1  UNL1       -0.0026
@<TRIPOS>BOND
     1    18    19    2
     2    19    17    1
     3    17     1    1
     4     1     2    1
     5     2     3    1
     6     3     4    2
     7     3     5   am
     8     5     6    1
     9     6    20    1
    10    20    21    1
    11    21    22   ar
    12    22    23   ar
    13    23    24   ar
    14    24    25    1
    15    24    26   ar
    16    26    27   ar
    17     6     7    1
    18     7     8    2
    19     7     9   am
    20     9    29    1
    21    29    30    1
    22    30    31   ar
    23    31    32   ar
    24    32    33   ar
    25    33    34   ar
    26    34    35   ar
    27    35    40    1
    28    40    41    2
    29    40    42   am
    30    42    43    1
    31    42    44    1
    32    44    45    1
    33    45    46    1
    34    46    47   ar
    35    47    48   ar
    36    48    49   ar
    37    49    50   ar
    38    50    51    1
    39    35    36   ar
    40    36    37   ar
    41    37    38    1
    42    37    39   ar
    43     9    10    1
    44    11    10    1
    45    11    12    1
    46    12    13   am
    47    13    14    2
    48    13    15   am
    49    15    52    1
    50    52    53    1
    51    53    54   ar
    52    54    55   ar
    53    55    56   ar
    54    56    57   ar
    55    57    58   ar
    56    12     1    1
    57    58    53   ar
    58    11     5    1
    59    27    21   ar
    60    39    30   ar
    61    39    34   ar
    62    50    46   ar
    63    25    28    1
    64    15    16    1
@<TRIPOS>MOLECULE
*****
 58 64 0 0 0
SMALL
GASTEIGER

@<TRIPOS>ATOM
      1 N          62.7043   84.0104    9.6266 N.3     1  UNL1       -0.1862
      2 C          61.9758   84.0450    8.3159 C.3     1  UNL1        0.1775
      3 C          61.2539   85.2895    7.8916 C.2     1  UNL1        0.2452
      4 O          60.5254   85.3241    6.5808 O.2     1  UNL1       -0.2732
      5 N          61.2606   86.4996    8.7781 N.am    1  UNL1       -0.2541
      6 C          60.5388   87.7441    8.3538 C.3     1  UNL1        0.1577
      7 C          60.5455   88.9541    9.2402 C.2     1  UNL1        0.2445
      8 O          59.8237   90.1987    8.8159 O.2     1  UNL1       -0.2731
      9 N          61.2741   88.9196   10.5510 N.am    1  UNL1       -0.2705
     10 C          61.9959   87.6750   10.9753 C.3     1  UNL1        0.1359
     11 C          61.9892   86.4650   10.0888 C.3     1  UNL1        0.1908
     12 N          62.7110   85.2204   10.5131 N.am    1  UNL1       -0.1863
     13 C          63.4395   85.1859   11.8239 C.2     1  UNL1        0.3191
     14 O          63.4462   86.3959   12.7103 O.2     1  UNL1       -0.2512
     15 N          64.1613   83.9413   12.2482 N.am    1  UNL1       -0.2836
     16 H          64.1569   83.1471   11.6663 H       1  UNL1        0.1513
     17 C          63.4261   82.7658   10.0509 C.3     1  UNL1        0.1188
     18 C          62.7032   81.0863   11.8966 C.2     1  UNL1       -0.0034
     19 C          62.6483   81.5546   10.4726 C.2     1  UNL1       -0.0071
     20 C          59.8103   87.7787    7.0430 C.3     1  UNL1        0.0556
     21 C          59.5998   89.0848    6.3362 C.ar    1  UNL1       -0.0198
     22 C          60.7633   89.7944    5.7094 C.ar    1  UNL1       -0.0011
     23 C          60.5528   91.1006    5.0025 C.ar    1  UNL1        0.0363
     24 C          59.1789   91.6971    4.9224 C.ar    1  UNL1        0.1337
     25 O          58.9684   93.0033    4.2155 O.3     1  UNL1       -0.5055
     26 C          58.0154   90.9876    5.5492 C.ar    1  UNL1        0.0363
     27 C          58.2258   89.6814    6.2561 C.ar    1  UNL1       -0.0011
     28 H          59.6952   93.4465    3.8240 H       1  UNL1        0.2922
     29 C          61.2808   90.1296   11.4374 C.3     1  UNL1        0.1217
     30 C          62.5326   90.9422   11.5879 C.ar    1  UNL1        0.0135
     31 C          63.0355   91.7647   10.4387 C.ar    1  UNL1       -0.0012
     32 C          64.2873   92.5773   10.5892 C.ar    1  UNL1       -0.0002
     33 C          65.0362   92.5673   11.8888 C.ar    1  UNL1        0.0016
     34 C          64.5333   91.7448   13.0379 C.ar    1  UNL1        0.0214
     35 C          65.0552   91.5388   14.4290 C.ar    1  UNL1        0.0721
     36 C          64.1260   90.5989   15.1383 C.ar    1  UNL1        0.0805
     37 N          63.0298   90.2241   14.1856 N.ar    1  UNL1       -0.3241
     38 C          61.8832   89.3028   14.4794 C.3     1  UNL1        0.1305
     39 C          63.2815   90.9323   12.8875 C.ar    1  UNL1        0.0577
     40 C          66.2898   92.1632   15.0090 C.2     1  UNL1        0.2506
     41 O          66.2572   92.7458   16.3909 O.2     1  UNL1       -0.2699
     42 N          67.5568   92.2048   14.2072 N.am    1  UNL1       -0.2723
     43 C          68.7912   92.8291   14.7871 C.3     1  UNL1        0.1152
     44 C          67.5892   91.6221   12.8253 C.3     1  UNL1        0.1182
     45 C          68.5137   92.1941   11.7918 C.3     1  UNL1        0.1287
     46 N          67.9935   93.1688   10.7773 N.ar    1  UNL1       -0.3119
     47 C          67.1904   94.4016   11.0699 C.ar    1  UNL1        0.0978
     48 C          66.8855   95.0766    9.7655 C.ar    1  UNL1        0.1188
     49 N          67.5001   94.2611    8.6668 N.ar    1  UNL1       -0.2293
     50 C          68.1849   93.0821    9.2920 C.ar    1  UNL1        0.1209
     51 C          68.9301   92.0053    8.5605 C.3     1  UNL1        0.0718
     52 C          64.8898   83.9068   13.5589 C.3     1  UNL1        0.1177
     53 C          64.3143   84.6045   14.7555 C.ar    1  UNL1       -0.0025
     54 C          64.8389   85.9491   15.1639 C.ar    1  UNL1       -0.0026
     55 C          64.2634   86.6469   16.3605 C.ar    1  UNL1       -0.0003
     56 C          63.1632   86.0001   17.1487 C.ar    1  UNL1       -0.0000
     57 C          62.6386   84.6554   16.7403 C.ar    1  UNL1       -0.0003
     58 C          63.2141   83.9576   15.5437 C.ar    1  UNL1       -0.0026
@<TRIPOS>BOND
     1    18    19    2
     2    19    17    1
     3    17     1    1
     4     1     2    1
     5     2     3    1
     6     3     4    2
     7     3     5   am
     8     5     6    1
     9     6    20    1
    10    20    21    1
    11    21    22   ar
    12    22    23   ar
    13    23    24   ar
    14    24    25    1
    15    24    26   ar
    16    26    27   ar
    17     6     7    1
    18     7     8    2
    19     7     9   am
    20     9    29    1
    21    29    30    1
    22    30    31   ar
    23    31    32   ar
    24    32    33   ar
    25    33    34   ar
    26    34    35   ar
    27    35    40    1
    28    40    41    2
    29    40    42   am
    30    42    43    1
    31    42    44    1
    32    44    45    1
    33    45    46    1
    34    46    47   ar
    35    47    48   ar
    36    48    49   ar
    37    49    50   ar
    38    50    51    1
    39    35    36   ar
    40    36    37   ar
    41    37    38    1
    42    37    39   ar
    43     9    10    1
    44    11    10    1
    45    11    12    1
    46    12    13   am
    47    13    14    2
    48    13    15   am
    49    15    52    1
    50    52    53    1
    51    53    54   ar
    52    54    55   ar
    53    55    56   ar
    54    56    57   ar
    55    57    58   ar
    56    12     1    1
    57    58    53   ar
    58    11     5    1
    59    27    21   ar
    60    39    30   ar
    61    39    34   ar
    62    50    46   ar
    63    25    28    1
    64    15    16    1
