@<TRIPOS>MOLECULE
*****
 35 39 0 0 0
SMALL
GASTEIGER

@<TRIPOS>ATOM
      1 O          59.1620   86.3875    6.8616 O.2     1  UNL1       -0.2662
      2 C          60.0362   86.9706    7.9320 C.2     1  UNL1        0.2878
      3 N          59.8195   88.3820    8.3913 N.am    1  UNL1       -0.2468
      4 C          60.6938   88.9650    9.4618 C.ar    1  UNL1        0.0547
      5 C          62.1101   89.3467    9.1482 C.ar    1  UNL1        0.0162
      6 C          62.9843   89.9297   10.2185 C.ar    1  UNL1        0.0158
      7 C          62.4422   90.1309   11.6026 C.ar    1  UNL1        0.0480
      8 C          61.0259   89.7492   11.9163 C.ar    1  UNL1        0.0158
      9 C          60.1517   89.1662   10.8458 C.ar    1  UNL1        0.0162
     10 N          63.3164   90.7139   12.6731 N.pl3   1  UNL1       -0.3047
     11 C          64.3840   91.7043   12.3129 C.3     1  UNL1        0.1079
     12 C          65.2582   92.2873   13.3834 C.3     1  UNL1        0.0903
     13 N          65.0649   91.8799   14.8139 N.3     1  UNL1       -0.2946
     14 C          63.9975   90.8896   15.1742 C.3     1  UNL1        0.0903
     15 C          63.1232   90.3065   14.1037 C.3     1  UNL1        0.1079
     16 H          64.8653   92.7318   15.3382 H       1  UNL1        0.1233
     17 C          61.1272   86.1422    8.5432 C.ar    1  UNL1        0.1989
     18 C          62.2574   85.4890    7.8043 C.ar    1  UNL1        0.0454
     19 C          63.1082   84.7646    8.8049 C.ar    1  UNL1        0.0408
     20 C          62.5039   84.9701   10.1623 C.ar    1  UNL1        0.1455
     21 O          61.2795   85.8214   10.0005 O.2     1  UNL1       -0.4489
     22 C          63.0313   84.4206   11.4547 C.ar    1  UNL1        0.0346
     23 C          63.0098   85.2662   12.6934 C.ar    1  UNL1        0.0039
     24 C          63.5371   84.7167   13.9857 C.ar    1  UNL1        0.0115
     25 C          64.0860   83.3218   14.0392 C.ar    1  UNL1        0.0577
     26 CL         64.6134   82.7723   15.3315 Cl      1  UNL1       -0.0822
     27 C          64.1075   82.4762   12.8004 C.ar    1  UNL1        0.0115
     28 C          63.5801   83.0257   11.5082 C.ar    1  UNL1        0.0039
     29 C          58.7285   89.2104    7.7802 C.3     1  UNL1        0.1442
     30 C          59.0180   90.0662    6.5827 C.ar    1  UNL1        0.0794
     31 C          60.4145   90.1518    6.0421 C.ar    1  UNL1        0.0165
     32 C          60.7040   91.0076    4.8446 C.ar    1  UNL1        0.0029
     33 C          59.5968   91.7777    4.1878 C.ar    1  UNL1        0.0207
     34 C          58.2003   91.6920    4.7285 C.ar    1  UNL1        0.0985
     35 N          57.9109   90.8362    5.9259 N.ar    1  UNL1       -0.2464
@<TRIPOS>BOND
     1     1     2    2
     2     2    17    1
     3    17    18   ar
     4    18    19   ar
     5    19    20   ar
     6    20    22    1
     7    22    23   ar
     8    23    24   ar
     9    24    25   ar
    10    25    26    1
    11    25    27   ar
    12    27    28   ar
    13    20    21   ar
    14     2     3   am
    15     3    29    1
    16    29    30    1
    17    30    31   ar
    18    31    32   ar
    19    32    33   ar
    20    33    34   ar
    21    34    35   ar
    22     3     4    1
    23     4     5   ar
    24     5     6   ar
    25     6     7   ar
    26     7    10    1
    27    10    11    1
    28    11    12    1
    29    12    13    1
    30    13    14    1
    31    14    15    1
    32     7     8   ar
    33     8     9   ar
    34    21    17   ar
    35    35    30   ar
    36     9     4   ar
    37    28    22   ar
    38    15    10    1
    39    13    16    1
@<TRIPOS>MOLECULE
*****
 35 39 0 0 0
SMALL
GASTEIGER

@<TRIPOS>ATOM
      1 O          63.4673   91.7016   13.1225 O.2     1  UNL1       -0.2662
      2 C          63.2808   90.2135   13.0917 C.2     1  UNL1        0.2878
      3 N          63.9902   89.3479   14.0905 N.am    1  UNL1       -0.2468
      4 C          63.8037   87.8598   14.0597 C.ar    1  UNL1        0.0547
      5 C          63.9531   87.0590   15.3192 C.ar    1  UNL1        0.0162
      6 C          63.7667   85.5710   15.2884 C.ar    1  UNL1        0.0158
      7 C          63.4307   84.8838   13.9980 C.ar    1  UNL1        0.0480
      8 C          63.2813   85.6847   12.7386 C.ar    1  UNL1        0.0158
      9 C          63.4678   87.1727   12.7694 C.ar    1  UNL1        0.0162
     10 N          63.2443   83.3958   13.9671 N.pl3   1  UNL1       -0.3047
     11 C          64.3169   82.5172   13.3947 C.3     1  UNL1        0.1079
     12 C          64.1304   81.0291   13.3638 C.3     1  UNL1        0.0903
     13 N          62.8714   80.4197   13.9053 N.3     1  UNL1       -0.2946
     14 C          61.7987   81.2981   14.4777 C.3     1  UNL1        0.0903
     15 C          61.9852   82.7863   14.5086 C.3     1  UNL1        0.1079
     16 H          63.1507   79.7757   14.6454 H       1  UNL1        0.1233
     17 C          62.3850   89.5911   12.0621 C.ar    1  UNL1        0.1989
     18 C          60.9512   89.9509   11.8075 C.ar    1  UNL1        0.0454
     19 C          60.4458   89.0817   10.6943 C.ar    1  UNL1        0.0408
     20 C          61.5672   88.1847   10.2610 C.ar    1  UNL1        0.1455
     21 O          62.7657   88.4995   11.1063 O.2     1  UNL1       -0.4489
     22 C          61.5017   87.1538    9.1733 C.ar    1  UNL1        0.0346
     23 C          62.6861   86.2747    8.9008 C.ar    1  UNL1        0.0039
     24 C          62.6205   85.2438    7.8132 C.ar    1  UNL1        0.0115
     25 C          61.3705   85.0922    6.9980 C.ar    1  UNL1        0.0577
     26 CL         61.3050   84.0613    5.9102 Cl      1  UNL1       -0.0822
     27 C          60.1861   85.9713    7.2704 C.ar    1  UNL1        0.0115
     28 C          60.2517   87.0021    8.3581 C.ar    1  UNL1        0.0039
     29 C          64.8859   89.9704   15.1201 C.3     1  UNL1        0.1442
     30 C          65.7317   91.1559   14.7603 C.ar    1  UNL1        0.0794
     31 C          65.9404   92.2581   15.7561 C.ar    1  UNL1        0.0165
     32 C          66.7862   93.4435   15.3963 C.ar    1  UNL1        0.0029
     33 C          67.4231   93.5267   14.0407 C.ar    1  UNL1        0.0207
     34 C          67.2143   92.4245   13.0450 C.ar    1  UNL1        0.0985
     35 N          66.3686   91.2390   13.4048 N.ar    1  UNL1       -0.2464
@<TRIPOS>BOND
     1     1     2    2
     2     2    17    1
     3    17    18   ar
     4    18    19   ar
     5    19    20   ar
     6    20    22    1
     7    22    23   ar
     8    23    24   ar
     9    24    25   ar
    10    25    26    1
    11    25    27   ar
    12    27    28   ar
    13    20    21   ar
    14     2     3   am
    15     3    29    1
    16    29    30    1
    17    30    31   ar
    18    31    32   ar
    19    32    33   ar
    20    33    34   ar
    21    34    35   ar
    22     3     4    1
    23     4     5   ar
    24     5     6   ar
    25     6     7   ar
    26     7    10    1
    27    10    11    1
    28    11    12    1
    29    12    13    1
    30    13    14    1
    31    14    15    1
    32     7     8   ar
    33     8     9   ar
    34    21    17   ar
    35    35    30   ar
    36     9     4   ar
    37    28    22   ar
    38    15    10    1
    39    13    16    1
@<TRIPOS>MOLECULE
*****
 35 39 0 0 0
SMALL
GASTEIGER

@<TRIPOS>ATOM
      1 O          65.2248   85.7844   16.0974 O.2     1  UNL1       -0.2662
      2 C          64.4350   86.3507   14.9548 C.2     1  UNL1        0.2878
      3 N          63.8261   85.4331   13.9363 N.am    1  UNL1       -0.2468
      4 C          63.0363   85.9994   12.7936 C.ar    1  UNL1        0.0547
      5 C          62.0765   85.1271   12.0401 C.ar    1  UNL1        0.0162
      6 C          61.2868   85.6933   10.8975 C.ar    1  UNL1        0.0158
      7 C          61.4569   87.1320   10.5084 C.ar    1  UNL1        0.0480
      8 C          62.4167   88.0043   11.2619 C.ar    1  UNL1        0.0158
      9 C          63.2064   87.4379   12.4045 C.ar    1  UNL1        0.0162
     10 N          60.6672   87.6983    9.3658 N.pl3   1  UNL1       -0.3047
     11 C          60.7016   89.1720    9.0878 C.3     1  UNL1        0.1079
     12 C          59.9118   89.7384    7.9452 C.3     1  UNL1        0.0903
     13 N          59.0877   88.8312    7.0806 N.3     1  UNL1       -0.2946
     14 C          59.0532   87.3575    7.3585 C.3     1  UNL1        0.0903
     15 C          59.8430   86.7911    8.5011 C.3     1  UNL1        0.1079
     16 H          59.4301   88.9429    6.1263 H       1  UNL1        0.1233
     17 C          64.2542   87.8345   14.8306 C.ar    1  UNL1        0.1989
     18 C          63.2754   88.6710   15.6004 C.ar    1  UNL1        0.0454
     19 C          63.4367   90.0959   15.1604 C.ar    1  UNL1        0.0408
     20 C          64.5150   90.1401   14.1187 C.ar    1  UNL1        0.1455
     21 O          65.0203   88.7425   13.9149 O.2     1  UNL1       -0.4489
     22 C          65.0026   91.3666   13.4059 C.ar    1  UNL1        0.0346
     23 C          64.5686   91.6369   11.9957 C.ar    1  UNL1        0.0039
     24 C          65.0562   92.8633   11.2830 C.ar    1  UNL1        0.0115
     25 C          65.9777   93.8196   11.9805 C.ar    1  UNL1        0.0577
     26 CL         66.4653   95.0461   11.2677 Cl      1  UNL1       -0.0822
     27 C          66.4117   93.5493   13.3906 C.ar    1  UNL1        0.0115
     28 C          65.9241   92.3229   14.1033 C.ar    1  UNL1        0.0039
     29 C          64.0070   83.9492   14.0605 C.3     1  UNL1        0.1442
     30 C          63.8067   83.0665   12.8643 C.ar    1  UNL1        0.0794
     31 C          62.8930   81.8802   12.9522 C.ar    1  UNL1        0.0165
     32 C          62.6928   80.9975   11.7560 C.ar    1  UNL1        0.0029
     33 C          63.4063   81.3013   10.4720 C.ar    1  UNL1        0.0207
     34 C          64.3200   82.4875   10.3841 C.ar    1  UNL1        0.0985
     35 N          64.5202   83.3702   11.5803 N.ar    1  UNL1       -0.2464
@<TRIPOS>BOND
     1     1     2    2
     2     2    17    1
     3    17    18   ar
     4    18    19   ar
     5    19    20   ar
     6    20    22    1
     7    22    23   ar
     8    23    24   ar
     9    24    25   ar
    10    25    26    1
    11    25    27   ar
    12    27    28   ar
    13    20    21   ar
    14     2     3   am
    15     3    29    1
    16    29    30    1
    17    30    31   ar
    18    31    32   ar
    19    32    33   ar
    20    33    34   ar
    21    34    35   ar
    22     3     4    1
    23     4     5   ar
    24     5     6   ar
    25     6     7   ar
    26     7    10    1
    27    10    11    1
    28    11    12    1
    29    12    13    1
    30    13    14    1
    31    14    15    1
    32     7     8   ar
    33     8     9   ar
    34    21    17   ar
    35    35    30   ar
    36     9     4   ar
    37    28    22   ar
    38    15    10    1
    39    13    16    1
@<TRIPOS>MOLECULE
*****
 35 39 0 0 0
SMALL
GASTEIGER

@<TRIPOS>ATOM
      1 O          59.2722   86.4507    6.7877 O.2     1  UNL1       -0.2662
      2 C          60.1519   86.9770    7.8828 C.2     1  UNL1        0.2878
      3 N          59.9888   88.3887    8.3627 N.am    1  UNL1       -0.2468
      4 C          60.8687   88.9150    9.4578 C.ar    1  UNL1        0.0547
      5 C          62.1772   89.5662    9.1209 C.ar    1  UNL1        0.0162
      6 C          63.0570   90.0924   10.2158 C.ar    1  UNL1        0.0158
      7 C          62.6282   89.9674   11.6478 C.ar    1  UNL1        0.0480
      8 C          61.3196   89.3162   11.9847 C.ar    1  UNL1        0.0158
      9 C          60.4399   88.7900   10.8897 C.ar    1  UNL1        0.0162
     10 N          63.5079   90.4936   12.7428 N.pl3   1  UNL1       -0.3047
     11 C          63.4833   89.8518   14.0984 C.3     1  UNL1        0.1079
     12 C          64.3630   90.3780   15.1935 C.3     1  UNL1        0.0903
     13 N          65.2674   91.5459   14.9330 N.3     1  UNL1       -0.2946
     14 C          65.2921   92.1878   13.5775 C.3     1  UNL1        0.0903
     15 C          64.4123   91.6616   12.4824 C.3     1  UNL1        0.1079
     16 H          66.2180   91.2313   15.1272 H       1  UNL1        0.1233
     17 C          61.1948   86.0915    8.4978 C.ar    1  UNL1        0.1989
     18 C          62.2665   85.3465    7.7585 C.ar    1  UNL1        0.0454
     19 C          63.0831   84.5901    8.7639 C.ar    1  UNL1        0.0408
     20 C          62.5162   84.8675   10.1246 C.ar    1  UNL1        0.1455
     21 O          61.3492   85.7955    9.9602 O.2     1  UNL1       -0.4489
     22 C          63.0267   84.3142   11.4221 C.ar    1  UNL1        0.0346
     23 C          62.9709   82.8380   11.6816 C.ar    1  UNL1        0.0039
     24 C          63.4814   82.2847   12.9790 C.ar    1  UNL1        0.0115
     25 C          64.0476   83.2078   14.0169 C.ar    1  UNL1        0.0577
     26 CL         64.5581   82.6545   15.3144 Cl      1  UNL1       -0.0822
     27 C          64.1034   84.6841   13.7574 C.ar    1  UNL1        0.0115
     28 C          63.5930   85.2373   12.4600 C.ar    1  UNL1        0.0039
     29 C          58.9460   89.2742    7.7477 C.3     1  UNL1        0.1442
     30 C          59.2907   90.1283    6.5637 C.ar    1  UNL1        0.0794
     31 C          60.6792   90.0993    5.9969 C.ar    1  UNL1        0.0165
     32 C          61.0239   90.9534    4.8130 C.ar    1  UNL1        0.0029
     33 C          59.9800   91.8365    4.1959 C.ar    1  UNL1        0.0207
     34 C          58.5916   91.8654    4.7627 C.ar    1  UNL1        0.0985
     35 N          58.2469   91.0113    5.9466 N.ar    1  UNL1       -0.2464
@<TRIPOS>BOND
     1     1     2    2
     2     2    17    1
     3    17    18   ar
     4    18    19   ar
     5    19    20   ar
     6    20    22    1
     7    22    23   ar
     8    23    24   ar
     9    24    25   ar
    10    25    26    1
    11    25    27   ar
    12    27    28   ar
    13    20    21   ar
    14     2     3   am
    15     3    29    1
    16    29    30    1
    17    30    31   ar
    18    31    32   ar
    19    32    33   ar
    20    33    34   ar
    21    34    35   ar
    22     3     4    1
    23     4     5   ar
    24     5     6   ar
    25     6     7   ar
    26     7    10    1
    27    10    11    1
    28    11    12    1
    29    12    13    1
    30    13    14    1
    31    14    15    1
    32     7     8   ar
    33     8     9   ar
    34    21    17   ar
    35    35    30   ar
    36     9     4   ar
    37    28    22   ar
    38    15    10    1
    39    13    16    1
@<TRIPOS>MOLECULE
*****
 35 39 0 0 0
SMALL
GASTEIGER

@<TRIPOS>ATOM
      1 O          59.4427   90.9436    8.7175 O.2     1  UNL1       -0.2662
      2 C          60.2168   89.8118    9.3256 C.2     1  UNL1        0.2878
      3 N          60.2084   88.4613    8.6728 N.am    1  UNL1       -0.2468
      4 C          60.9825   87.3295    9.2809 C.ar    1  UNL1        0.0547
      5 C          60.7677   86.9613   10.7191 C.ar    1  UNL1        0.0162
      6 C          61.5418   85.8295   11.3272 C.ar    1  UNL1        0.0158
      7 C          62.5307   85.0659   10.4971 C.ar    1  UNL1        0.0480
      8 C          62.7455   85.4341    9.0590 C.ar    1  UNL1        0.0158
      9 C          61.9714   86.5659    8.4509 C.ar    1  UNL1        0.0162
     10 N          63.3048   83.9341   11.1052 N.pl3   1  UNL1       -0.3047
     11 C          63.6866   82.7505   10.2664 C.3     1  UNL1        0.1079
     12 C          64.4607   81.6187   10.8744 C.3     1  UNL1        0.0903
     13 N          64.8531   81.6704   12.3212 N.3     1  UNL1       -0.2946
     14 C          64.4714   82.8539   13.1601 C.3     1  UNL1        0.0903
     15 C          63.6972   83.9858   12.5520 C.3     1  UNL1        0.1079
     16 H          65.8703   81.6028   12.3530 H       1  UNL1        0.1233
     17 C          60.9993   90.0304   10.5865 C.ar    1  UNL1        0.1989
     18 C          60.5079   89.7866   11.9826 C.ar    1  UNL1        0.0454
     19 C          61.6154   90.1368   12.9317 C.ar    1  UNL1        0.0408
     20 C          62.7913   90.5971   12.1221 C.ar    1  UNL1        0.1455
     21 O          62.4105   90.5314   10.6727 O.2     1  UNL1       -0.4489
     22 C          64.1156   91.0446   12.6664 C.ar    1  UNL1        0.0346
     23 C          64.6080   90.5071   13.9774 C.ar    1  UNL1        0.0039
     24 C          65.9322   90.9546   14.5215 C.ar    1  UNL1        0.0115
     25 C          66.7640   91.9395   13.7548 C.ar    1  UNL1        0.0577
     26 CL         68.0883   92.3870   14.2990 Cl      1  UNL1       -0.0822
     27 C          66.2716   92.4770   12.4438 C.ar    1  UNL1        0.0115
     28 C          64.9474   92.0295   11.8996 C.ar    1  UNL1        0.0039
     29 C          59.4259   88.2426    7.4119 C.3     1  UNL1        0.1442
     30 C          59.1685   89.3899    6.4805 C.ar    1  UNL1        0.0794
     31 C          60.3143   90.0614    5.7831 C.ar    1  UNL1        0.0165
     32 C          60.0568   91.2087    4.8517 C.ar    1  UNL1        0.0029
     33 C          58.6535   91.6844    4.6177 C.ar    1  UNL1        0.0207
     34 C          57.5078   91.0129    5.3151 C.ar    1  UNL1        0.0985
     35 N          57.7653   89.8656    6.2465 N.ar    1  UNL1       -0.2464
@<TRIPOS>BOND
     1     1     2    2
     2     2    17    1
     3    17    18   ar
     4    18    19   ar
     5    19    20   ar
     6    20    22    1
     7    22    23   ar
     8    23    24   ar
     9    24    25   ar
    10    25    26    1
    11    25    27   ar
    12    27    28   ar
    13    20    21   ar
    14     2     3   am
    15     3    29    1
    16    29    30    1
    17    30    31   ar
    18    31    32   ar
    19    32    33   ar
    20    33    34   ar
    21    34    35   ar
    22     3     4    1
    23     4     5   ar
    24     5     6   ar
    25     6     7   ar
    26     7    10    1
    27    10    11    1
    28    11    12    1
    29    12    13    1
    30    13    14    1
    31    14    15    1
    32     7     8   ar
    33     8     9   ar
    34    21    17   ar
    35    35    30   ar
    36     9     4   ar
    37    28    22   ar
    38    15    10    1
    39    13    16    1
