@<TRIPOS>MOLECULE
*****
 22 25 0 0 0
SMALL
GASTEIGER

@<TRIPOS>ATOM
      1 C          63.3795   85.4016   13.2140 C.ar    1  UNL1       -0.0003
      2 C          64.1287   85.9120   14.4090 C.ar    1  UNL1       -0.0003
      3 C          64.3731   87.3833   14.5688 C.ar    1  UNL1       -0.0043
      4 C          63.8683   88.3442   13.5334 C.ar    1  UNL1       -0.0223
      5 C          63.1190   87.8338   12.3384 C.ar    1  UNL1       -0.0258
      6 C          62.8747   86.3625   12.1787 C.ar    1  UNL1       -0.0046
      7 C          62.7445   89.0116   11.4884 C.3     1  UNL1        0.0267
      8 C          63.2623   90.2499   12.1581 C.3     1  UNL1        0.0134
      9 C          63.9568   89.8375   13.4220 C.3     1  UNL1        0.0461
     10 F          62.4019   79.5164   12.5751 F       1  UNL1       -0.2042
     11 C          62.6463   80.9876   12.7348 C.ar    1  UNL1        0.1401
     12 C          63.1480   81.7949   11.5744 C.ar    1  UNL1        0.0296
     13 C          63.3924   83.2663   11.7341 C.ar    1  UNL1        0.0023
     14 C          63.1351   83.9303   13.0543 C.ar    1  UNL1        0.0001
     15 C          62.6334   83.1230   14.2147 C.ar    1  UNL1        0.0023
     16 C          62.3890   81.6517   14.0550 C.ar    1  UNL1        0.0296
     17 C          64.6229   90.7568   14.4023 C.ar    1  UNL1        0.0007
     18 C          66.0158   91.2489   14.1421 C.ar    1  UNL1       -0.0008
     19 C          66.6818   92.1682   15.1225 C.ar    1  UNL1        0.0204
     20 C          65.9550   92.5955   16.3631 C.ar    1  UNL1        0.0989
     21 N          64.5621   92.1035   16.6234 N.ar    1  UNL1       -0.2426
     22 C          63.8961   91.1841   15.6430 C.ar    1  UNL1        0.0949
@<TRIPOS>BOND
     1    10    11    1
     2    11    12   ar
     3    12    13   ar
     4    13    14   ar
     5    14     1    1
     6     1     2   ar
     7     2     3   ar
     8     3     4   ar
     9     4     5   ar
    10     5     6   ar
    11     5     7    1
    12     7     8    1
    13     8     9    1
    14     9    17    1
    15    17    18   ar
    16    18    19   ar
    17    19    20   ar
    18    20    21   ar
    19    21    22   ar
    20    14    15   ar
    21    15    16   ar
    22    16    11   ar
    23     6     1   ar
    24    22    17   ar
    25     9     4    1
@<TRIPOS>MOLECULE
*****
 22 25 0 0 0
SMALL
GASTEIGER

@<TRIPOS>ATOM
      1 C          62.6875   89.7238   10.7722 C.ar    1  UNL1       -0.0003
      2 C          63.1581   89.3340   12.1420 C.ar    1  UNL1       -0.0003
      3 C          64.1644   90.1841   12.8593 C.ar    1  UNL1       -0.0043
      4 C          64.7001   91.4240   12.2068 C.ar    1  UNL1       -0.0223
      5 C          64.2294   91.8138   10.8370 C.ar    1  UNL1       -0.0258
      6 C          63.2231   90.9637   10.1197 C.ar    1  UNL1       -0.0046
      7 C          64.9307   93.0818   10.4493 C.3     1  UNL1        0.0267
      8 C          65.8348   93.4757   11.5796 C.3     1  UNL1        0.0134
      9 C          65.6923   92.4512   12.6658 C.3     1  UNL1        0.0461
     10 F          58.6621   86.3234    7.9026 F       1  UNL1       -0.2042
     11 C          59.6684   87.1735    8.6200 C.ar    1  UNL1        0.1401
     12 C          60.6903   86.5339    9.5125 C.ar    1  UNL1        0.0296
     13 C          61.6967   87.3840   10.2299 C.ar    1  UNL1        0.0023
     14 C          61.6811   88.8737   10.0548 C.ar    1  UNL1        0.0001
     15 C          60.6592   89.5132    9.1623 C.ar    1  UNL1        0.0023
     16 C          59.6528   88.6632    8.4449 C.ar    1  UNL1        0.0296
     17 C          66.4150   92.4533   13.9802 C.ar    1  UNL1        0.0007
     18 C          67.9018   92.2584   14.0189 C.ar    1  UNL1       -0.0008
     19 C          68.6244   92.2606   15.3333 C.ar    1  UNL1        0.0204
     20 C          67.8604   92.4577   16.6090 C.ar    1  UNL1        0.0989
     21 N          66.3736   92.6527   16.5703 N.ar    1  UNL1       -0.2426
     22 C          65.6509   92.6505   15.2559 C.ar    1  UNL1        0.0949
@<TRIPOS>BOND
     1    10    11    1
     2    11    12   ar
     3    12    13   ar
     4    13    14   ar
     5    14     1    1
     6     1     2   ar
     7     2     3   ar
     8     3     4   ar
     9     4     5   ar
    10     5     6   ar
    11     5     7    1
    12     7     8    1
    13     8     9    1
    14     9    17    1
    15    17    18   ar
    16    18    19   ar
    17    19    20   ar
    18    20    21   ar
    19    21    22   ar
    20    14    15   ar
    21    15    16   ar
    22    16    11   ar
    23     6     1   ar
    24    22    17   ar
    25     9     4    1
@<TRIPOS>MOLECULE
*****
 22 25 0 0 0
SMALL
GASTEIGER

@<TRIPOS>ATOM
      1 C          62.5592   86.6665   10.5505 C.ar    1  UNL1       -0.0003
      2 C          62.5790   88.1553   10.7322 C.ar    1  UNL1       -0.0003
      3 C          63.0480   88.7464   12.0286 C.ar    1  UNL1       -0.0043
      4 C          63.4972   87.8487   13.1432 C.ar    1  UNL1       -0.0223
      5 C          63.4774   86.3599   12.9615 C.ar    1  UNL1       -0.0258
      6 C          63.0084   85.7688   11.6651 C.ar    1  UNL1       -0.0046
      7 C          63.9754   85.7315   14.2291 C.3     1  UNL1        0.0267
      8 C          64.3030   86.8319   15.1944 C.3     1  UNL1        0.0134
      9 C          64.0075   88.1404   14.5233 C.3     1  UNL1        0.0461
     10 F          60.6833   84.3019    5.3649 F       1  UNL1       -0.2042
     11 C          61.1523   84.8931    6.6612 C.ar    1  UNL1        0.1401
     12 C          60.2053   85.6912    7.5077 C.ar    1  UNL1        0.0296
     13 C          60.6744   86.2823    8.8041 C.ar    1  UNL1        0.0023
     14 C          62.0902   86.0754    9.2540 C.ar    1  UNL1        0.0001
     15 C          63.0371   85.2773    8.4076 C.ar    1  UNL1        0.0023
     16 C          62.5682   84.6861    7.1113 C.ar    1  UNL1        0.0296
     17 C          64.1902   89.5017   15.1263 C.ar    1  UNL1        0.0007
     18 C          65.2501   90.4209   14.5957 C.ar    1  UNL1       -0.0008
     19 C          65.4326   91.7821   15.1988 C.ar    1  UNL1        0.0204
     20 C          64.5554   92.2241   16.3324 C.ar    1  UNL1        0.0989
     21 N          63.4955   91.3048   16.8630 N.ar    1  UNL1       -0.2426
     22 C          63.3129   89.9436   16.2599 C.ar    1  UNL1        0.0949
@<TRIPOS>BOND
     1    10    11    1
     2    11    12   ar
     3    12    13   ar
     4    13    14   ar
     5    14     1    1
     6     1     2   ar
     7     2     3   ar
     8     3     4   ar
     9     4     5   ar
    10     5     6   ar
    11     5     7    1
    12     7     8    1
    13     8     9    1
    14     9    17    1
    15    17    18   ar
    16    18    19   ar
    17    19    20   ar
    18    20    21   ar
    19    21    22   ar
    20    14    15   ar
    21    15    16   ar
    22    16    11   ar
    23     6     1   ar
    24    22    17   ar
    25     9     4    1
@<TRIPOS>MOLECULE
*****
 22 25 0 0 0
SMALL
GASTEIGER

@<TRIPOS>ATOM
      1 C          64.3451   90.3520   13.1319 C.ar    1  UNL1       -0.0003
      2 C          63.5927   90.9230   11.9667 C.ar    1  UNL1       -0.0003
      3 C          62.7139   90.0369   11.1346 C.ar    1  UNL1       -0.0043
      4 C          62.5876   88.5798   11.4676 C.ar    1  UNL1       -0.0223
      5 C          63.3400   88.0088   12.6328 C.ar    1  UNL1       -0.0258
      6 C          64.2188   88.8949   13.4649 C.ar    1  UNL1       -0.0046
      7 C          63.0207   86.5457   12.7187 C.3     1  UNL1        0.0267
      8 C          62.0708   86.2125   11.6066 C.3     1  UNL1        0.0134
      9 C          61.8031   87.4696   10.8334 C.3     1  UNL1        0.0461
     10 F          67.8605   93.8963   16.4606 F       1  UNL1       -0.2042
     11 C          66.9817   93.0103   15.6285 C.ar    1  UNL1        0.1401
     12 C          65.7516   92.3968   16.2289 C.ar    1  UNL1        0.0296
     13 C          64.8727   91.5107   15.3967 C.ar    1  UNL1        0.0023
     14 C          65.2240   91.2381   13.9641 C.ar    1  UNL1        0.0001
     15 C          66.4541   91.8516   13.3637 C.ar    1  UNL1        0.0023
     16 C          67.3329   92.7376   14.1959 C.ar    1  UNL1        0.0296
     17 C          60.9081   87.5947    9.6362 C.ar    1  UNL1        0.0007
     18 C          60.4391   86.3638    8.9185 C.ar    1  UNL1       -0.0008
     19 C          59.5442   86.4890    7.7213 C.ar    1  UNL1        0.0204
     20 C          59.1181   87.8449    7.2418 C.ar    1  UNL1        0.0989
     21 N          59.5870   89.0757    7.9595 N.ar    1  UNL1       -0.2426
     22 C          60.4820   88.9506    9.1566 C.ar    1  UNL1        0.0949
@<TRIPOS>BOND
     1    10    11    1
     2    11    12   ar
     3    12    13   ar
     4    13    14   ar
     5    14     1    1
     6     1     2   ar
     7     2     3   ar
     8     3     4   ar
     9     4     5   ar
    10     5     6   ar
    11     5     7    1
    12     7     8    1
    13     8     9    1
    14     9    17    1
    15    17    18   ar
    16    18    19   ar
    17    19    20   ar
    18    20    21   ar
    19    21    22   ar
    20    14    15   ar
    21    15    16   ar
    22    16    11   ar
    23     6     1   ar
    24    22    17   ar
    25     9     4    1
@<TRIPOS>MOLECULE
*****
 22 25 0 0 0
SMALL
GASTEIGER

@<TRIPOS>ATOM
      1 C          63.1120   84.0256   13.9343 C.ar    1  UNL1       -0.0003
      2 C          63.6719   85.2001   13.1880 C.ar    1  UNL1       -0.0003
      3 C          63.8039   86.5289   13.8711 C.ar    1  UNL1       -0.0043
      4 C          63.3761   86.6833   15.3005 C.ar    1  UNL1       -0.0223
      5 C          62.8162   85.5088   16.0467 C.ar    1  UNL1       -0.0258
      6 C          62.6842   84.1799   15.3637 C.ar    1  UNL1       -0.0046
      7 C          62.4808   85.9603   17.4373 C.3     1  UNL1        0.0267
      8 C          62.8334   87.4139   17.5504 C.3     1  UNL1        0.0134
      9 C          63.3867   87.8607   16.2298 C.3     1  UNL1        0.0461
     10 F          62.5837   78.7100   11.2019 F       1  UNL1       -0.2042
     11 C          62.7158   80.0388   11.8850 C.ar    1  UNL1        0.1401
     12 C          62.4137   80.1629   13.3490 C.ar    1  UNL1        0.0296
     13 C          62.5458   81.4918   14.0321 C.ar    1  UNL1        0.0023
     14 C          62.9799   82.6966   13.2512 C.ar    1  UNL1        0.0001
     15 C          63.2820   82.5726   11.7872 C.ar    1  UNL1        0.0023
     16 C          63.1499   81.2437   11.1041 C.ar    1  UNL1        0.0296
     17 C          63.8665   89.2424   15.8969 C.ar    1  UNL1        0.0007
     18 C          64.7823   89.4571   14.7285 C.ar    1  UNL1       -0.0008
     19 C          65.2620   90.8388   14.3957 C.ar    1  UNL1        0.0204
     20 C          64.8259   92.0057   15.2311 C.ar    1  UNL1        0.0989
     21 N          63.9100   91.7910   16.3995 N.ar    1  UNL1       -0.2426
     22 C          63.4303   90.4093   16.7323 C.ar    1  UNL1        0.0949
@<TRIPOS>BOND
     1    10    11    1
     2    11    12   ar
     3    12    13   ar
     4    13    14   ar
     5    14     1    1
     6     1     2   ar
     7     2     3   ar
     8     3     4   ar
     9     4     5   ar
    10     5     6   ar
    11     5     7    1
    12     7     8    1
    13     8     9    1
    14     9    17    1
    15    17    18   ar
    16    18    19   ar
    17    19    20   ar
    18    20    21   ar
    19    21    22   ar
    20    14    15   ar
    21    15    16   ar
    22    16    11   ar
    23     6     1   ar
    24    22    17   ar
    25     9     4    1
@<TRIPOS>MOLECULE
*****
 22 25 0 0 0
SMALL
GASTEIGER

@<TRIPOS>ATOM
      1 C          64.1894   88.4068   14.0927 C.ar    1  UNL1       -0.0003
      2 C          64.4426   87.1318   14.8410 C.ar    1  UNL1       -0.0003
      3 C          63.9599   85.8260   14.2827 C.ar    1  UNL1       -0.0043
      4 C          63.2240   85.7952   12.9760 C.ar    1  UNL1       -0.0223
      5 C          62.9708   87.0702   12.2276 C.ar    1  UNL1       -0.0258
      6 C          63.4535   88.3760   12.7860 C.ar    1  UNL1       -0.0046
      7 C          62.2234   86.7303   10.9723 C.3     1  UNL1        0.0267
      8 C          62.0147   85.2451   10.9448 C.3     1  UNL1        0.0134
      9 C          62.6331   84.6672   12.1832 C.3     1  UNL1        0.0461
     10 F          66.1203   93.6303   16.3258 F       1  UNL1       -0.2042
     11 C          65.6376   92.3245   15.7676 C.ar    1  UNL1        0.1401
     12 C          64.3735   91.7075   16.2886 C.ar    1  UNL1        0.0296
     13 C          63.8908   90.4016   15.7303 C.ar    1  UNL1        0.0023
     14 C          64.6722   89.7127   14.6510 C.ar    1  UNL1        0.0001
     15 C          65.9362   90.3297   14.1300 C.ar    1  UNL1        0.0023
     16 C          66.4190   91.6355   14.6882 C.ar    1  UNL1        0.0296
     17 C          62.6565   83.2160   12.5622 C.ar    1  UNL1        0.0007
     18 C          62.8974   82.1708   11.5137 C.ar    1  UNL1       -0.0008
     19 C          62.9208   80.7197   11.8928 C.ar    1  UNL1        0.0204
     20 C          62.7033   80.3138   13.3204 C.ar    1  UNL1        0.0989
     21 N          62.4624   81.3591   14.3689 N.ar    1  UNL1       -0.2426
     22 C          62.4390   82.8102   13.9898 C.ar    1  UNL1        0.0949
@<TRIPOS>BOND
     1    10    11    1
     2    11    12   ar
     3    12    13   ar
     4    13    14   ar
     5    14     1    1
     6     1     2   ar
     7     2     3   ar
     8     3     4   ar
     9     4     5   ar
    10     5     6   ar
    11     5     7    1
    12     7     8    1
    13     8     9    1
    14     9    17    1
    15    17    18   ar
    16    18    19   ar
    17    19    20   ar
    18    20    21   ar
    19    21    22   ar
    20    14    15   ar
    21    15    16   ar
    22    16    11   ar
    23     6     1   ar
    24    22    17   ar
    25     9     4    1
@<TRIPOS>MOLECULE
*****
 22 25 0 0 0
SMALL
GASTEIGER

@<TRIPOS>ATOM
      1 C          62.3108   88.9403   10.8113 C.ar    1  UNL1       -0.0003
      2 C          62.8991   90.3002   10.5778 C.ar    1  UNL1       -0.0003
      3 C          63.8192   90.9044   11.5968 C.ar    1  UNL1       -0.0043
      4 C          64.1509   90.1488   12.8494 C.ar    1  UNL1       -0.0223
      5 C          63.5625   88.7889   13.0829 C.ar    1  UNL1       -0.0258
      6 C          62.6425   88.1847   12.0639 C.ar    1  UNL1       -0.0046
      7 C          64.0681   88.2856   14.4024 C.3     1  UNL1        0.0267
      8 C          64.9689   89.3344   14.9844 C.3     1  UNL1        0.0134
      9 C          65.0200   90.4859   14.0245 C.3     1  UNL1        0.0461
     10 F          58.6306   86.5233    6.7353 F       1  UNL1       -0.2042
     11 C          59.5506   87.1275    7.7543 C.ar    1  UNL1        0.1401
     12 C          60.4538   86.2463    8.5654 C.ar    1  UNL1        0.0296
     13 C          61.3738   86.8506    9.5844 C.ar    1  UNL1        0.0023
     14 C          61.3907   88.3360    9.7923 C.ar    1  UNL1        0.0001
     15 C          60.4876   89.2172    8.9812 C.ar    1  UNL1        0.0023
     16 C          59.5676   88.6130    7.9622 C.ar    1  UNL1        0.0296
     17 C          65.8029   91.7523   14.2076 C.ar    1  UNL1        0.0007
     18 C          66.5205   92.0102   15.4993 C.ar    1  UNL1       -0.0008
     19 C          67.3033   93.2766   15.6824 C.ar    1  UNL1        0.0204
     20 C          67.3686   94.2849   14.5738 C.ar    1  UNL1        0.0989
     21 N          66.6509   94.0269   13.2821 N.ar    1  UNL1       -0.2426
     22 C          65.8681   92.7606   13.0990 C.ar    1  UNL1        0.0949
@<TRIPOS>BOND
     1    10    11    1
     2    11    12   ar
     3    12    13   ar
     4    13    14   ar
     5    14     1    1
     6     1     2   ar
     7     2     3   ar
     8     3     4   ar
     9     4     5   ar
    10     5     6   ar
    11     5     7    1
    12     7     8    1
    13     8     9    1
    14     9    17    1
    15    17    18   ar
    16    18    19   ar
    17    19    20   ar
    18    20    21   ar
    19    21    22   ar
    20    14    15   ar
    21    15    16   ar
    22    16    11   ar
    23     6     1   ar
    24    22    17   ar
    25     9     4    1
@<TRIPOS>MOLECULE
*****
 22 25 0 0 0
SMALL
GASTEIGER

@<TRIPOS>ATOM
      1 C          62.9935   84.3120   12.0178 C.ar    1  UNL1       -0.0003
      2 C          63.5349   84.8140   13.3235 C.ar    1  UNL1       -0.0003
      3 C          63.6129   86.2888   13.5858 C.ar    1  UNL1       -0.0043
      4 C          63.1495   87.2616   12.5423 C.ar    1  UNL1       -0.0223
      5 C          62.6081   86.7597   11.2366 C.ar    1  UNL1       -0.0258
      6 C          62.5301   85.2849   10.9744 C.ar    1  UNL1       -0.0046
      7 C          62.2292   87.9486   10.4042 C.3     1  UNL1        0.0267
      8 C          62.5364   89.1854   11.1954 C.3     1  UNL1        0.0134
      9 C          63.1052   88.7608   12.5169 C.3     1  UNL1        0.0461
     10 F          62.6815   78.4126   10.9688 F       1  UNL1       -0.2042
     11 C          62.7595   79.8875   11.2311 C.ar    1  UNL1        0.1401
     12 C          63.1248   80.8282   10.1214 C.ar    1  UNL1        0.0296
     13 C          63.2028   82.3031   10.3836 C.ar    1  UNL1        0.0023
     14 C          62.9155   82.8371   11.7556 C.ar    1  UNL1        0.0001
     15 C          62.5502   81.8964   12.8653 C.ar    1  UNL1        0.0023
     16 C          62.4722   80.4216   12.6030 C.ar    1  UNL1        0.0296
     17 C          63.5513   89.6749   13.6193 C.ar    1  UNL1        0.0007
     18 C          64.4745   90.8182   13.3182 C.ar    1  UNL1       -0.0008
     19 C          64.9206   91.7322   14.4207 C.ar    1  UNL1        0.0204
     20 C          64.4435   91.5030   15.8242 C.ar    1  UNL1        0.0989
     21 N          63.5203   90.3598   16.1253 N.ar    1  UNL1       -0.2426
     22 C          63.0742   89.4457   15.0228 C.ar    1  UNL1        0.0949
@<TRIPOS>BOND
     1    10    11    1
     2    11    12   ar
     3    12    13   ar
     4    13    14   ar
     5    14     1    1
     6     1     2   ar
     7     2     3   ar
     8     3     4   ar
     9     4     5   ar
    10     5     6   ar
    11     5     7    1
    12     7     8    1
    13     8     9    1
    14     9    17    1
    15    17    18   ar
    16    18    19   ar
    17    19    20   ar
    18    20    21   ar
    19    21    22   ar
    20    14    15   ar
    21    15    16   ar
    22    16    11   ar
    23     6     1   ar
    24    22    17   ar
    25     9     4    1
@<TRIPOS>MOLECULE
*****
 22 25 0 0 0
SMALL
GASTEIGER

@<TRIPOS>ATOM
      1 C          63.2130   83.3462   12.2131 C.ar    1  UNL1       -0.0003
      2 C          62.8384   84.4388   11.2561 C.ar    1  UNL1       -0.0003
      3 C          63.0159   85.8750   11.6509 C.ar    1  UNL1       -0.0043
      4 C          63.5680   86.2186   13.0026 C.ar    1  UNL1       -0.0223
      5 C          63.9425   85.1260   13.9596 C.ar    1  UNL1       -0.0258
      6 C          63.7650   83.6898   13.5649 C.ar    1  UNL1       -0.0046
      7 C          64.4589   85.7656   15.2143 C.3     1  UNL1        0.0267
      8 C          64.4035   87.2536   15.0327 C.3     1  UNL1        0.0134
      9 C          63.8528   87.5336   13.6658 C.3     1  UNL1        0.0461
     10 F          62.5030   77.6014   10.6342 F       1  UNL1       -0.2042
     11 C          62.6805   79.0375   11.0290 C.ar    1  UNL1        0.1401
     12 C          62.4893   79.4518   12.4579 C.ar    1  UNL1        0.0296
     13 C          62.6668   80.8880   12.8526 C.ar    1  UNL1        0.0023
     14 C          63.0355   81.9100   11.8184 C.ar    1  UNL1        0.0001
     15 C          63.2267   81.4958   10.3895 C.ar    1  UNL1        0.0023
     16 C          63.0492   80.0596    9.9947 C.ar    1  UNL1        0.0296
     17 C          63.6267   88.8902   13.0672 C.ar    1  UNL1        0.0007
     18 C          62.8519   89.0269   11.7901 C.ar    1  UNL1       -0.0008
     19 C          62.6258   90.3835   11.1916 C.ar    1  UNL1        0.0204
     20 C          63.1746   91.6036   11.8701 C.ar    1  UNL1        0.0989
     21 N          63.9495   91.4669   13.1472 N.ar    1  UNL1       -0.2426
     22 C          64.1755   90.1103   13.7457 C.ar    1  UNL1        0.0949
@<TRIPOS>BOND
     1    10    11    1
     2    11    12   ar
     3    12    13   ar
     4    13    14   ar
     5    14     1    1
     6     1     2   ar
     7     2     3   ar
     8     3     4   ar
     9     4     5   ar
    10     5     6   ar
    11     5     7    1
    12     7     8    1
    13     8     9    1
    14     9    17    1
    15    17    18   ar
    16    18    19   ar
    17    19    20   ar
    18    20    21   ar
    19    21    22   ar
    20    14    15   ar
    21    15    16   ar
    22    16    11   ar
    23     6     1   ar
    24    22    17   ar
    25     9     4    1
