@<TRIPOS>MOLECULE
*****
 34 37 0 0 0
SMALL
GASTEIGER

@<TRIPOS>ATOM
      1 N          63.1429   89.6820   11.8905 N.pl3   1  UNL1       -0.2736
      2 C          63.8731   90.9008   11.4095 C.3     1  UNL1        0.1082
      3 C          64.5952   91.5003   12.5796 C.3     1  UNL1        0.1550
      4 C          65.4746   92.7090   12.7041 C.2     1  UNL1        0.2922
      5 O          65.7585   93.5574   11.5000 O.2     1  UNL1       -0.2563
      6 N          66.0702   93.0695   14.0329 N.am    1  UNL1       -0.1448
      7 C          66.9496   94.2783   14.1574 C.3     1  UNL1        0.2159
      8 C          65.7863   92.2212   15.2369 C.2     1  UNL1        0.3732
      9 N          66.3819   92.5817   16.5656 N.pl3   1  UNL1       -0.2512
     10 N          64.9069   91.0125   15.1123 N.2     1  UNL1       -0.1015
     11 C          64.3114   90.6520   13.7837 C.3     1  UNL1        0.1995
     12 C          63.4137   89.5282   13.3578 C.3     1  UNL1        0.1382
     13 H          66.9591   93.3750   16.6474 H       1  UNL1        0.2412
     14 H          66.1955   92.0249   17.3559 H       1  UNL1        0.2412
     15 C          63.9400   89.7137   14.8934 C.ar    1  UNL1        0.0729
     16 C          63.3280   90.2482   16.1543 C.ar    1  UNL1        0.1439
     17 F          63.0873   91.7210   16.3054 F       1  UNL1       -0.2042
     18 C          62.9567   89.3098   17.2641 C.ar    1  UNL1        0.0615
     19 C          63.1974   87.8370   17.1130 C.ar    1  UNL1        0.1719
     20 F          62.8260   86.8986   18.2228 F       1  UNL1       -0.2016
     21 C          63.8094   87.3025   15.8521 C.ar    1  UNL1        0.1945
     22 F          64.0501   85.8296   15.7012 F       1  UNL1       -0.1994
     23 C          64.1807   88.2408   14.7424 C.ar    1  UNL1        0.1710
     24 F          64.7928   87.7063   13.4815 F       1  UNL1       -0.2019
     25 C          61.4554   86.3895   10.4542 C.ar    1  UNL1        0.2569
     26 N          62.3069   87.2957   11.2932 N.ar    1  UNL1       -0.1768
     27 C          62.2913   88.7759   11.0515 C.ar    1  UNL1        0.2226
     28 N          61.4241   89.3502    9.9707 N.ar    1  UNL1       -0.2155
     29 C          60.5725   88.4441    9.1317 C.ar    1  UNL1        0.0942
     30 C          59.7053   89.0184    8.0509 C.3     1  UNL1        0.0548
     31 C          60.5881   86.9638    9.3734 C.ar    1  UNL1        0.2065
     32 F          59.7366   86.0578    8.5344 F       1  UNL1       -0.1980
     33 C          62.5682   84.2944   11.5136 C.3     1  UNL1        0.2543
     34 O          61.4711   84.9093   10.6961 O.3     1  UNL1       -0.4545
@<TRIPOS>BOND
     1    33    34    1
     2    34    25    1
     3    25    26   ar
     4    26    27   ar
     5    27     1    1
     6     1     2    1
     7     3     2    1
     8     3     4    1
     9     4     5    2
    10     4     6   am
    11     6     7    1
    12     6     8    1
    13     8     9    1
    14     8    10    2
    15    10    11    1
    16    11    15    1
    17    15    16   ar
    18    16    17    1
    19    16    18   ar
    20    18    19   ar
    21    19    20    1
    22    19    21   ar
    23    21    22    1
    24    21    23   ar
    25    23    24    1
    26    11    12    1
    27    27    28   ar
    28    28    29   ar
    29    29    30    1
    30    29    31   ar
    31    31    32    1
    32    31    25   ar
    33    12     1    1
    34    11     3    1
    35    23    15   ar
    36     9    13    1
    37     9    14    1
@<TRIPOS>MOLECULE
*****
 34 37 0 0 0
SMALL
GASTEIGER

@<TRIPOS>ATOM
      1 N          62.7528   84.8728   12.2163 N.pl3   1  UNL1       -0.2736
      2 C          63.5183   85.7475   13.1644 C.3     1  UNL1        0.1082
      3 C          63.3226   87.1730   12.7404 C.3     1  UNL1        0.1550
      4 C          63.8371   88.4661   13.2999 C.2     1  UNL1        0.2922
      5 O          64.7234   88.4600   14.5101 O.2     1  UNL1       -0.2563
      6 N          63.4651   89.7655   12.6493 N.am    1  UNL1       -0.1448
      7 C          63.9796   91.0588   13.2088 C.3     1  UNL1        0.2159
      8 C          62.5789   89.7717   11.4392 C.2     1  UNL1        0.3732
      9 N          62.2069   91.0712   10.7886 N.pl3   1  UNL1       -0.2512
     10 N          62.0644   88.4786   10.8797 N.2     1  UNL1       -0.1015
     11 C          62.4363   87.1792   11.5303 C.3     1  UNL1        0.1995
     12 C          62.0842   85.7576   11.2064 C.3     1  UNL1        0.1382
     13 H          62.5445   91.9199   11.1558 H       1  UNL1        0.2412
     14 H          61.6252   91.0752    9.9943 H       1  UNL1        0.2412
     15 C          61.5462   87.0289   10.3323 C.ar    1  UNL1        0.0729
     16 C          60.1541   87.5868   10.3576 C.ar    1  UNL1        0.1439
     17 F          59.6519   88.2950   11.5808 F       1  UNL1       -0.2042
     18 C          59.2640   87.4365    9.1596 C.ar    1  UNL1        0.0615
     19 C          59.7661   86.7284    7.9364 C.ar    1  UNL1        0.1719
     20 F          58.8760   86.5781    6.7383 F       1  UNL1       -0.2016
     21 C          61.1583   86.1705    7.9111 C.ar    1  UNL1        0.1945
     22 F          61.6603   85.4623    6.6878 F       1  UNL1       -0.1994
     23 C          62.0484   86.3208    9.1091 C.ar    1  UNL1        0.1710
     24 F          63.4405   85.7629    9.0838 F       1  UNL1       -0.2019
     25 C          63.0953   81.0592   11.1721 C.ar    1  UNL1        0.2569
     26 N          63.1776   82.5561   11.1196 N.ar    1  UNL1       -0.1768
     27 C          62.6705   83.3759   12.2689 C.ar    1  UNL1        0.2226
     28 N          62.0812   82.6989   13.4707 N.ar    1  UNL1       -0.2155
     29 C          61.9989   81.2021   13.5231 C.ar    1  UNL1        0.0942
     30 C          61.4096   80.5251   14.7249 C.3     1  UNL1        0.0548
     31 C          62.5060   80.3823   12.3739 C.ar    1  UNL1        0.2065
     32 F          62.4236   78.8854   12.4265 F       1  UNL1       -0.1980
     33 C          62.7194   79.2028    9.3938 C.3     1  UNL1        0.2543
     34 O          63.6024   80.2395   10.0228 O.3     1  UNL1       -0.4545
@<TRIPOS>BOND
     1    33    34    1
     2    34    25    1
     3    25    26   ar
     4    26    27   ar
     5    27     1    1
     6     1     2    1
     7     3     2    1
     8     3     4    1
     9     4     5    2
    10     4     6   am
    11     6     7    1
    12     6     8    1
    13     8     9    1
    14     8    10    2
    15    10    11    1
    16    11    15    1
    17    15    16   ar
    18    16    17    1
    19    16    18   ar
    20    18    19   ar
    21    19    20    1
    22    19    21   ar
    23    21    22    1
    24    21    23   ar
    25    23    24    1
    26    11    12    1
    27    27    28   ar
    28    28    29   ar
    29    29    30    1
    30    29    31   ar
    31    31    32    1
    32    31    25   ar
    33    12     1    1
    34    11     3    1
    35    23    15   ar
    36     9    13    1
    37     9    14    1
@<TRIPOS>MOLECULE
*****
 34 37 0 0 0
SMALL
GASTEIGER

@<TRIPOS>ATOM
      1 N          63.1117   89.8190   11.8621 N.pl3   1  UNL1       -0.2736
      2 C          63.8593   91.0321   11.3936 C.3     1  UNL1        0.1082
      3 C          64.6053   91.5979   12.5655 C.3     1  UNL1        0.1550
      4 C          65.5085   92.7878   12.7006 C.2     1  UNL1        0.2922
      5 O          65.7952   93.6512   11.5079 O.2     1  UNL1       -0.2563
      6 N          66.1252   93.1143   14.0285 N.am    1  UNL1       -0.1448
      7 C          67.0284   94.3043   14.1636 C.3     1  UNL1        0.2159
      8 C          65.8386   92.2510   15.2211 C.2     1  UNL1        0.3732
      9 N          66.4552   92.5776   16.5490 N.pl3   1  UNL1       -0.2512
     10 N          64.9353   91.0611   15.0860 N.2     1  UNL1       -0.1015
     11 C          64.3187   90.7346   13.7582 C.3     1  UNL1        0.1995
     12 C          63.3956   89.6351   13.3234 C.3     1  UNL1        0.1382
     13 H          67.0481   93.3585   16.6377 H       1  UNL1        0.2412
     14 H          66.2671   92.0109   17.3318 H       1  UNL1        0.2412
     15 C          63.9419   89.7844   14.8560 C.ar    1  UNL1        0.0729
     16 C          63.3487   90.3081   16.1304 C.ar    1  UNL1        0.1439
     17 F          63.1322   91.7818   16.3069 F       1  UNL1       -0.2042
     18 C          62.9720   89.3579   17.2282 C.ar    1  UNL1        0.0615
     19 C          63.1884   87.8842   17.0517 C.ar    1  UNL1        0.1719
     20 F          62.8117   86.9339   18.1496 F       1  UNL1       -0.2016
     21 C          63.7817   87.3605   15.7773 C.ar    1  UNL1        0.1945
     22 F          63.9981   85.8867   15.6009 F       1  UNL1       -0.1994
     23 C          64.1584   88.3107   14.6795 C.ar    1  UNL1        0.1710
     24 F          64.7516   87.7871   13.4051 F       1  UNL1       -0.2019
     25 C          60.3462   88.6845    9.2513 C.ar    1  UNL1        0.2569
     26 N          61.2238   89.5600   10.0960 N.ar    1  UNL1       -0.1768
     27 C          62.2341   88.9434   11.0174 C.ar    1  UNL1        0.2226
     28 N          62.3669   87.4513   11.0942 N.ar    1  UNL1       -0.2155
     29 C          61.4894   86.5758   10.2496 C.ar    1  UNL1        0.0942
     30 C          61.6222   85.0837   10.3264 C.3     1  UNL1        0.0548
     31 C          60.4790   87.1924    9.3281 C.ar    1  UNL1        0.2065
     32 F          59.6015   86.3168    8.4835 F       1  UNL1       -0.1980
     33 C          59.5505   89.2598    6.8459 C.3     1  UNL1        0.2543
     34 O          59.3360   89.3012    8.3299 O.3     1  UNL1       -0.4545
@<TRIPOS>BOND
     1    33    34    1
     2    34    25    1
     3    25    26   ar
     4    26    27   ar
     5    27     1    1
     6     1     2    1
     7     3     2    1
     8     3     4    1
     9     4     5    2
    10     4     6   am
    11     6     7    1
    12     6     8    1
    13     8     9    1
    14     8    10    2
    15    10    11    1
    16    11    15    1
    17    15    16   ar
    18    16    17    1
    19    16    18   ar
    20    18    19   ar
    21    19    20    1
    22    19    21   ar
    23    21    22    1
    24    21    23   ar
    25    23    24    1
    26    11    12    1
    27    27    28   ar
    28    28    29   ar
    29    29    30    1
    30    29    31   ar
    31    31    32    1
    32    31    25   ar
    33    12     1    1
    34    11     3    1
    35    23    15   ar
    36     9    13    1
    37     9    14    1
@<TRIPOS>MOLECULE
*****
 34 37 0 0 0
SMALL
GASTEIGER

@<TRIPOS>ATOM
      1 N          63.6255   86.9956   12.9986 N.pl3   1  UNL1       -0.2736
      2 C          63.8413   86.0721   14.1607 C.3     1  UNL1        0.1082
      3 C          63.4876   84.6825   13.7203 C.3     1  UNL1        0.1550
      4 C          63.5050   83.3666   14.4400 C.2     1  UNL1        0.2922
      5 O          63.9393   83.3017   15.8743 O.2     1  UNL1       -0.2563
      6 N          63.0880   82.1154   13.7253 N.am    1  UNL1       -0.1448
      7 C          63.1053   80.7993   14.4450 C.3     1  UNL1        0.2159
      8 C          62.6536   82.1801   12.2911 C.2     1  UNL1        0.3732
      9 N          62.2366   80.9289   11.5764 N.pl3   1  UNL1       -0.2512
     10 N          62.6362   83.4961   11.5714 N.2     1  UNL1       -0.1015
     11 C          63.0532   84.7472   12.2860 C.3     1  UNL1        0.1995
     12 C          63.1384   86.1769   11.8400 C.3     1  UNL1        0.1382
     13 H          62.2480   80.0652   12.0488 H       1  UNL1        0.2412
     14 H          61.9515   80.9715   10.6351 H       1  UNL1        0.2412
     15 C          62.6454   84.9666   10.8593 C.ar    1  UNL1        0.0729
     16 C          63.4523   84.3643    9.7474 C.ar    1  UNL1        0.1439
     17 F          64.6671   83.5427   10.0623 F       1  UNL1       -0.2042
     18 C          63.0445   84.5837    8.3207 C.ar    1  UNL1        0.0615
     19 C          61.8296   85.4053    8.0059 C.ar    1  UNL1        0.1719
     20 F          61.4217   85.6247    6.5791 F       1  UNL1       -0.2016
     21 C          61.0227   86.0075    9.1177 C.ar    1  UNL1        0.1945
     22 F          59.8079   86.8291    8.8027 F       1  UNL1       -0.1994
     23 C          61.4305   85.7882   10.5444 C.ar    1  UNL1        0.1710
     24 F          60.6236   86.3905   11.6562 F       1  UNL1       -0.2019
     25 C          64.7191   90.6230   14.1805 C.ar    1  UNL1        0.2569
     26 N          64.4883   89.1408   14.1834 N.ar    1  UNL1       -0.1768
     27 C          63.8562   88.4778   12.9956 C.ar    1  UNL1        0.2226
     28 N          63.4547   89.2969   11.8049 N.ar    1  UNL1       -0.2155
     29 C          63.6855   90.7791   11.8021 C.ar    1  UNL1        0.0942
     30 C          63.2841   91.5983   10.6113 C.3     1  UNL1        0.0548
     31 C          64.3177   91.4421   12.9898 C.ar    1  UNL1        0.2065
     32 F          64.5484   92.9243   12.9868 F       1  UNL1       -0.1980
     33 C          66.6783   91.9707   15.2270 C.3     1  UNL1        0.2543
     34 O          65.3513   91.2859   15.3683 O.3     1  UNL1       -0.4545
@<TRIPOS>BOND
     1    33    34    1
     2    34    25    1
     3    25    26   ar
     4    26    27   ar
     5    27     1    1
     6     1     2    1
     7     3     2    1
     8     3     4    1
     9     4     5    2
    10     4     6   am
    11     6     7    1
    12     6     8    1
    13     8     9    1
    14     8    10    2
    15    10    11    1
    16    11    15    1
    17    15    16   ar
    18    16    17    1
    19    16    18   ar
    20    18    19   ar
    21    19    20    1
    22    19    21   ar
    23    21    22    1
    24    21    23   ar
    25    23    24    1
    26    11    12    1
    27    27    28   ar
    28    28    29   ar
    29    29    30    1
    30    29    31   ar
    31    31    32    1
    32    31    25   ar
    33    12     1    1
    34    11     3    1
    35    23    15   ar
    36     9    13    1
    37     9    14    1
@<TRIPOS>MOLECULE
*****
 34 37 0 0 0
SMALL
GASTEIGER

@<TRIPOS>ATOM
      1 N          62.4603   89.1720   11.5175 N.pl3   1  UNL1       -0.2736
      2 C          61.5433   89.8939   10.5752 C.3     1  UNL1        0.1082
      3 C          60.9789   88.8881    9.6161 C.3     1  UNL1        0.1550
      4 C          60.0209   89.0221    8.4696 C.2     1  UNL1        0.2922
      5 O          59.4528   90.3657    8.1200 O.2     1  UNL1       -0.2563
      6 N          59.6312   87.8125    7.6727 N.am    1  UNL1       -0.1448
      7 C          58.6732   87.9465    6.5261 C.3     1  UNL1        0.2159
      8 C          60.1993   86.4691    8.0222 C.2     1  UNL1        0.3732
      9 N          59.8095   85.2595    7.2253 N.pl3   1  UNL1       -0.2512
     10 N          61.1572   86.3351    9.1687 N.2     1  UNL1       -0.1015
     11 C          61.5470   87.5446    9.9657 C.3     1  UNL1        0.1995
     12 C          62.4626   87.7200   11.1408 C.3     1  UNL1        0.1382
     13 H          59.1808   85.3474    6.4728 H       1  UNL1        0.2412
     14 H          60.1824   84.3777    7.4548 H       1  UNL1        0.2412
     15 C          62.1933   86.2734   10.4306 C.ar    1  UNL1        0.0729
     16 C          63.1449   85.5429    9.5301 C.ar    1  UNL1        0.1439
     17 F          63.4501   86.0836    8.1646 F       1  UNL1       -0.2042
     18 C          63.7912   84.2716    9.9950 C.ar    1  UNL1        0.0615
     19 C          63.4860   83.7309   11.3604 C.ar    1  UNL1        0.1719
     20 F          64.1324   82.4596   11.8254 F       1  UNL1       -0.2016
     21 C          62.5345   84.4614   12.2610 C.ar    1  UNL1        0.1945
     22 F          62.2293   83.9206   13.6264 F       1  UNL1       -0.1994
     23 C          61.8881   85.7327   11.7960 C.ar    1  UNL1        0.1710
     24 F          60.9366   86.4632   12.6965 F       1  UNL1       -0.2019
     25 C          63.7154   90.0365   15.1819 C.ar    1  UNL1        0.2569
     26 N          62.9374   89.4156   14.0597 N.ar    1  UNL1       -0.1768
     27 C          63.2384   89.7929   12.6395 C.ar    1  UNL1        0.2226
     28 N          64.3175   90.7912   12.3414 N.ar    1  UNL1       -0.2155
     29 C          65.0955   91.4121   13.4635 C.ar    1  UNL1        0.0942
     30 C          66.1747   92.4104   13.1654 C.3     1  UNL1        0.0548
     31 C          64.7945   91.0348   14.8837 C.ar    1  UNL1        0.2065
     32 F          65.5727   91.6557   16.0058 F       1  UNL1       -0.1980
     33 C          63.0493   88.2442   16.9408 C.3     1  UNL1        0.2543
     34 O          63.4144   89.6591   16.6020 O.3     1  UNL1       -0.4545
@<TRIPOS>BOND
     1    33    34    1
     2    34    25    1
     3    25    26   ar
     4    26    27   ar
     5    27     1    1
     6     1     2    1
     7     3     2    1
     8     3     4    1
     9     4     5    2
    10     4     6   am
    11     6     7    1
    12     6     8    1
    13     8     9    1
    14     8    10    2
    15    10    11    1
    16    11    15    1
    17    15    16   ar
    18    16    17    1
    19    16    18   ar
    20    18    19   ar
    21    19    20    1
    22    19    21   ar
    23    21    22    1
    24    21    23   ar
    25    23    24    1
    26    11    12    1
    27    27    28   ar
    28    28    29   ar
    29    29    30    1
    30    29    31   ar
    31    31    32    1
    32    31    25   ar
    33    12     1    1
    34    11     3    1
    35    23    15   ar
    36     9    13    1
    37     9    14    1
@<TRIPOS>MOLECULE
*****
 34 37 0 0 0
SMALL
GASTEIGER

@<TRIPOS>ATOM
      1 N          63.6651   86.8182   13.1203 N.pl3   1  UNL1       -0.2736
      2 C          63.9016   85.8508   14.2420 C.3     1  UNL1        0.1082
      3 C          63.5722   84.4746   13.7444 C.3     1  UNL1        0.1550
      4 C          63.6161   83.1302   14.4081 C.2     1  UNL1        0.2922
      5 O          64.0561   83.0133   15.8374 O.2     1  UNL1       -0.2563
      6 N          63.2199   81.9026   13.6425 N.am    1  UNL1       -0.1448
      7 C          63.2637   80.5580   14.3062 C.3     1  UNL1        0.2159
      8 C          62.7798   82.0194   12.2133 C.2     1  UNL1        0.3732
      9 N          62.3836   80.7918   11.4477 N.pl3   1  UNL1       -0.2512
     10 N          62.7359   83.3639   11.5496 N.2     1  UNL1       -0.1015
     11 C          63.1321   84.5915   12.3151 C.3     1  UNL1        0.1995
     12 C          63.1896   86.0399   11.9294 C.3     1  UNL1        0.1382
     13 H          62.4124   79.9094   11.8833 H       1  UNL1        0.2412
     14 H          62.0948   80.8686   10.5097 H       1  UNL1        0.2412
     15 C          62.7157   84.8629   10.8999 C.ar    1  UNL1        0.0729
     16 C          63.5171   84.3035    9.7619 C.ar    1  UNL1        0.1439
     17 F          64.7348   83.4727   10.0392 F       1  UNL1       -0.2042
     18 C          63.1007   84.5750    8.3467 C.ar    1  UNL1        0.0615
     19 C          61.8830   85.4058    8.0694 C.ar    1  UNL1        0.1719
     20 F          61.4666   85.6773    6.6541 F       1  UNL1       -0.2016
     21 C          61.0817   85.9652    9.2074 C.ar    1  UNL1        0.1945
     22 F          59.8640   86.7961    8.9300 F       1  UNL1       -0.1994
     23 C          61.4980   85.6938   10.6226 C.ar    1  UNL1        0.1710
     24 F          60.6967   86.2532   11.7606 F       1  UNL1       -0.2019
     25 C          63.4450   90.6727   12.2010 C.ar    1  UNL1        0.2569
     26 N          63.2417   89.1876   12.1423 N.ar    1  UNL1       -0.1768
     27 C          63.8685   88.3032   13.1790 C.ar    1  UNL1        0.2226
     28 N          64.6987   88.9037   14.2745 N.ar    1  UNL1       -0.2155
     29 C          64.9021   90.3887   14.3332 C.ar    1  UNL1        0.0942
     30 C          65.7323   90.9892   15.4287 C.3     1  UNL1        0.0548
     31 C          64.2753   91.2732   13.2965 C.ar    1  UNL1        0.2065
     32 F          64.4787   92.7582   13.3553 F       1  UNL1       -0.1980
     33 C          62.9311   91.2050    9.7105 C.3     1  UNL1        0.2543
     34 O          62.8182   91.5570   11.1643 O.3     1  UNL1       -0.4545
@<TRIPOS>BOND
     1    33    34    1
     2    34    25    1
     3    25    26   ar
     4    26    27   ar
     5    27     1    1
     6     1     2    1
     7     3     2    1
     8     3     4    1
     9     4     5    2
    10     4     6   am
    11     6     7    1
    12     6     8    1
    13     8     9    1
    14     8    10    2
    15    10    11    1
    16    11    15    1
    17    15    16   ar
    18    16    17    1
    19    16    18   ar
    20    18    19   ar
    21    19    20    1
    22    19    21   ar
    23    21    22    1
    24    21    23   ar
    25    23    24    1
    26    11    12    1
    27    27    28   ar
    28    28    29   ar
    29    29    30    1
    30    29    31   ar
    31    31    32    1
    32    31    25   ar
    33    12     1    1
    34    11     3    1
    35    23    15   ar
    36     9    13    1
    37     9    14    1
@<TRIPOS>MOLECULE
*****
 34 37 0 0 0
SMALL
GASTEIGER

@<TRIPOS>ATOM
      1 N          62.4448   89.1588   11.5155 N.pl3   1  UNL1       -0.2736
      2 C          61.5310   89.8826   10.5716 C.3     1  UNL1        0.1082
      3 C          60.9732   88.8794    9.6059 C.3     1  UNL1        0.1550
      4 C          60.0206   89.0160    8.4553 C.2     1  UNL1        0.2922
      5 O          59.4514   90.3597    8.1081 O.2     1  UNL1       -0.2563
      6 N          59.6371   87.8087    7.6518 N.am    1  UNL1       -0.1448
      7 C          58.6844   87.9452    6.5012 C.3     1  UNL1        0.2159
      8 C          60.2062   86.4650    7.9990 C.2     1  UNL1        0.3732
      9 N          59.8227   85.2577    7.1955 N.pl3   1  UNL1       -0.2512
     10 N          61.1588   86.3285    9.1495 N.2     1  UNL1       -0.1015
     11 C          61.5423   87.5357    9.9530 C.3     1  UNL1        0.1995
     12 C          62.4519   87.7084   11.1332 C.3     1  UNL1        0.1382
     13 H          59.1975   85.3473    6.4403 H       1  UNL1        0.2412
     14 H          60.1963   84.3758    7.4233 H       1  UNL1        0.2412
     15 C          62.1890   86.2640   10.4161 C.ar    1  UNL1        0.0729
     16 C          63.1410   85.5351    9.5147 C.ar    1  UNL1        0.1439
     17 F          63.4463   86.0780    8.1502 F       1  UNL1       -0.2042
     18 C          63.7876   84.2634    9.9779 C.ar    1  UNL1        0.0615
     19 C          63.4823   83.7205   11.3424 C.ar    1  UNL1        0.1719
     20 F          64.1289   82.4487   11.8056 F       1  UNL1       -0.2016
     21 C          62.5303   84.4493   12.2438 C.ar    1  UNL1        0.1945
     22 F          62.2250   83.9063   13.6084 F       1  UNL1       -0.1994
     23 C          61.8836   85.7211   11.7807 C.ar    1  UNL1        0.1710
     24 F          60.9316   86.4499   12.6821 F       1  UNL1       -0.2019
     25 C          65.0819   91.3793   13.4816 C.ar    1  UNL1        0.2569
     26 N          64.3104   90.7611   12.3535 N.ar    1  UNL1       -0.1768
     27 C          63.2163   89.7770   12.6437 C.ar    1  UNL1        0.2226
     28 N          62.8935   89.4110   14.0621 N.ar    1  UNL1       -0.2155
     29 C          63.6650   90.0292   15.1902 C.ar    1  UNL1        0.0942
     30 C          63.3423   89.6632   16.6086 C.3     1  UNL1        0.0548
     31 C          64.7592   91.0133   14.9000 C.ar    1  UNL1        0.2065
     32 F          65.5306   91.6315   16.0282 F       1  UNL1       -0.1980
     33 C          67.6077   91.9856   13.4309 C.3     1  UNL1        0.2543
     34 O          66.1760   92.3635   13.1913 O.3     1  UNL1       -0.4545
@<TRIPOS>BOND
     1    33    34    1
     2    34    25    1
     3    25    26   ar
     4    26    27   ar
     5    27     1    1
     6     1     2    1
     7     3     2    1
     8     3     4    1
     9     4     5    2
    10     4     6   am
    11     6     7    1
    12     6     8    1
    13     8     9    1
    14     8    10    2
    15    10    11    1
    16    11    15    1
    17    15    16   ar
    18    16    17    1
    19    16    18   ar
    20    18    19   ar
    21    19    20    1
    22    19    21   ar
    23    21    22    1
    24    21    23   ar
    25    23    24    1
    26    11    12    1
    27    27    28   ar
    28    28    29   ar
    29    29    30    1
    30    29    31   ar
    31    31    32    1
    32    31    25   ar
    33    12     1    1
    34    11     3    1
    35    23    15   ar
    36     9    13    1
    37     9    14    1
@<TRIPOS>MOLECULE
*****
 34 37 0 0 0
SMALL
GASTEIGER

@<TRIPOS>ATOM
      1 N          60.9384   94.1838   -1.6476 N.pl3   1  UNL1       -0.2736
      2 C          62.0567   95.0283   -2.1825 C.3     1  UNL1        0.1082
      3 C          63.0334   95.2636   -1.0687 C.3     1  UNL1        0.1550
      4 C          64.3250   96.0240   -1.0103 C.2     1  UNL1        0.2922
      5 O          64.8398   96.7231   -2.2336 O.2     1  UNL1       -0.2563
      6 N          65.1019   96.0855    0.2714 N.am    1  UNL1       -0.1448
      7 C          66.3936   96.8460    0.3298 C.3     1  UNL1        0.2159
      8 C          64.5872   95.3865    1.4946 C.2     1  UNL1        0.3732
      9 N          65.3641   95.4479    2.7764 N.pl3   1  UNL1       -0.2512
     10 N          63.2956   94.6260    1.4363 N.2     1  UNL1       -0.1015
     11 C          62.5187   94.5645    0.1546 C.3     1  UNL1        0.1995
     12 C          61.2239   93.8972   -0.2032 C.3     1  UNL1        0.1382
     13 H          66.2118   95.9470    2.8147 H       1  UNL1        0.2412
     14 H          65.0262   94.9891    3.5792 H       1  UNL1        0.2412
     15 C          61.8820   93.8197    1.2903 C.ar    1  UNL1        0.0729
     16 C          60.5514   94.2609    1.8242 C.ar    1  UNL1        0.1439
     17 F          59.8576   95.4468    1.2224 F       1  UNL1       -0.2042
     18 C          59.9147   93.5161    2.9599 C.ar    1  UNL1        0.0615
     19 C          60.6085   92.3301    3.5617 C.ar    1  UNL1        0.1719
     20 F          59.9718   91.5853    4.6974 F       1  UNL1       -0.2016
     21 C          61.9391   91.8890    3.0278 C.ar    1  UNL1        0.1945
     22 F          62.6329   90.7031    3.6297 F       1  UNL1       -0.1994
     23 C          62.5759   92.6338    1.8921 C.ar    1  UNL1        0.1710
     24 F          63.9064   92.1927    1.3582 F       1  UNL1       -0.2019
     25 C          58.4516   93.5099   -4.6663 C.ar    1  UNL1        0.2569
     26 N          59.6458   93.9845   -3.8925 N.ar    1  UNL1       -0.1768
     27 C          59.7441   93.7092   -2.4213 C.ar    1  UNL1        0.2226
     28 N          58.6481   92.9595   -1.7237 N.ar    1  UNL1       -0.2155
     29 C          57.4539   92.4849   -2.4975 C.ar    1  UNL1        0.0942
     30 C          56.3579   91.7351   -1.7999 C.3     1  UNL1        0.0548
     31 C          57.3556   92.7602   -3.9687 C.ar    1  UNL1        0.2065
     32 F          56.1613   92.2856   -4.7424 F       1  UNL1       -0.1980
     33 C          59.5554   94.2719   -6.8914 C.3     1  UNL1        0.2543
     34 O          58.3534   93.7852   -6.1375 O.3     1  UNL1       -0.4545
@<TRIPOS>BOND
     1    33    34    1
     2    34    25    1
     3    25    26   ar
     4    26    27   ar
     5    27     1    1
     6     1     2    1
     7     3     2    1
     8     3     4    1
     9     4     5    2
    10     4     6   am
    11     6     7    1
    12     6     8    1
    13     8     9    1
    14     8    10    2
    15    10    11    1
    16    11    15    1
    17    15    16   ar
    18    16    17    1
    19    16    18   ar
    20    18    19   ar
    21    19    20    1
    22    19    21   ar
    23    21    22    1
    24    21    23   ar
    25    23    24    1
    26    11    12    1
    27    27    28   ar
    28    28    29   ar
    29    29    30    1
    30    29    31   ar
    31    31    32    1
    32    31    25   ar
    33    12     1    1
    34    11     3    1
    35    23    15   ar
    36     9    13    1
    37     9    14    1
@<TRIPOS>MOLECULE
*****
 34 37 0 0 0
SMALL
GASTEIGER

@<TRIPOS>ATOM
      1 N          60.7682   94.2695   -2.4126 N.pl3   1  UNL1       -0.2736
      2 C          61.9280   94.9791   -3.0461 C.3     1  UNL1        0.1082
      3 C          62.9228   95.2947   -1.9687 C.3     1  UNL1        0.1550
      4 C          64.2545   95.9842   -2.0029 C.2     1  UNL1        0.2922
      5 O          64.7996   96.4987   -3.3022 O.2     1  UNL1       -0.2563
      6 N          65.0412   96.1591   -0.7377 N.am    1  UNL1       -0.1448
      7 C          66.3730   96.8486   -0.7720 C.3     1  UNL1        0.2159
      8 C          64.4962   95.6447    0.5615 C.2     1  UNL1        0.3732
      9 N          65.2829   95.8196    1.8267 N.pl3   1  UNL1       -0.2512
     10 N          63.1645   94.9552    0.5958 N.2     1  UNL1       -0.1015
     11 C          62.3778   94.7802   -0.6693 C.3     1  UNL1        0.1995
     12 C          61.0461   94.1466   -0.9437 C.3     1  UNL1        0.1382
     13 H          66.1569   96.2721    1.8043 H       1  UNL1        0.2412
     14 H          64.9251   95.4819    2.6795 H       1  UNL1        0.2412
     15 C          61.7079   94.2164    0.5486 C.ar    1  UNL1        0.0729
     16 C          60.4623   94.8581    1.0843 C.ar    1  UNL1        0.1439
     17 F          59.8867   96.0635    0.4021 F       1  UNL1       -0.2042
     18 C          59.7924   94.2942    2.3022 C.ar    1  UNL1        0.0615
     19 C          60.3681   93.0888    2.9844 C.ar    1  UNL1        0.1719
     20 F          59.6982   92.5249    4.2024 F       1  UNL1       -0.2016
     21 C          61.6137   92.4471    2.4487 C.ar    1  UNL1        0.1945
     22 F          62.1892   91.2416    3.1311 F       1  UNL1       -0.1994
     23 C          62.2835   93.0110    1.2308 C.ar    1  UNL1        0.1710
     24 F          63.5291   92.3693    0.6951 F       1  UNL1       -0.2019
     25 C          57.2835   92.4922   -3.0824 C.ar    1  UNL1        0.2569
     26 N          58.5066   92.9914   -2.3718 N.ar    1  UNL1       -0.1768
     27 C          59.5451   93.7704   -3.1232 C.ar    1  UNL1        0.2226
     28 N          59.3605   94.0504   -4.5852 N.ar    1  UNL1       -0.2155
     29 C          58.1373   93.5513   -5.2958 C.ar    1  UNL1        0.0942
     30 C          57.9527   93.8313   -6.7578 C.3     1  UNL1        0.0548
     31 C          57.0989   92.7722   -4.5444 C.ar    1  UNL1        0.2065
     32 F          55.8758   92.2731   -5.2550 F       1  UNL1       -0.1980
     33 C          55.7242   90.4229   -2.8911 C.3     1  UNL1        0.2543
     34 O          56.2451   91.7132   -2.3309 O.3     1  UNL1       -0.4545
@<TRIPOS>BOND
     1    33    34    1
     2    34    25    1
     3    25    26   ar
     4    26    27   ar
     5    27     1    1
     6     1     2    1
     7     3     2    1
     8     3     4    1
     9     4     5    2
    10     4     6   am
    11     6     7    1
    12     6     8    1
    13     8     9    1
    14     8    10    2
    15    10    11    1
    16    11    15    1
    17    15    16   ar
    18    16    17    1
    19    16    18   ar
    20    18    19   ar
    21    19    20    1
    22    19    21   ar
    23    21    22    1
    24    21    23   ar
    25    23    24    1
    26    11    12    1
    27    27    28   ar
    28    28    29   ar
    29    29    30    1
    30    29    31   ar
    31    31    32    1
    32    31    25   ar
    33    12     1    1
    34    11     3    1
    35    23    15   ar
    36     9    13    1
    37     9    14    1
