@<TRIPOS>MOLECULE
*****
 31 35 0 0 0
SMALL
GASTEIGER

@<TRIPOS>ATOM
      1 C          62.0876   88.8359   11.2102 C.3     1  UNL1        0.0182
      2 C          62.7729   90.0696   10.7019 C.3     1  UNL1        0.0053
      3 C          63.5769   91.3169   10.4836 C.3     1  UNL1        0.0436
      4 C          64.2878   91.6403   11.7642 C.3     1  UNL1        0.1659
      5 C          63.9233   90.5927   12.7740 C.3     1  UNL1        0.0436
      6 C          62.9870   89.6220   12.1175 C.3     1  UNL1        0.0053
      7 C          61.1726   87.6697   10.9798 C.3     1  UNL1        0.0718
      8 N          61.4155   86.3733   11.6942 N.am    1  UNL1       -0.3025
      9 C          62.2911   85.3266   11.0717 C.2     1  UNL1        0.2458
     10 O          62.9239   85.5763    9.7349 O.2     1  UNL1       -0.2701
     11 H          61.0001   86.2095   12.5716 H       1  UNL1        0.1497
     12 C          62.5340   84.0302   11.7861 C.ar    1  UNL1        0.0534
     13 C          62.4148   83.9632   13.2798 C.ar    1  UNL1        0.0054
     14 C          62.6577   82.6667   13.9942 C.ar    1  UNL1        0.0115
     15 C          63.0198   81.4373   13.2148 C.ar    1  UNL1        0.0577
     16 CL         63.2627   80.1409   13.9291 Cl      1  UNL1       -0.0822
     17 C          63.1390   81.5044   11.7210 C.ar    1  UNL1        0.0115
     18 C          62.8961   82.8008   11.0067 C.ar    1  UNL1        0.0054
     19 C          60.0936   87.1957    8.6645 C.3     1  UNL1        0.0017
     20 C          60.0148   87.8000   10.0350 C.3     1  UNL1        0.0196
     21 O          65.2027   92.8063   11.9946 O.3     1  UNL1       -0.4790
     22 C          66.3566   93.0490   11.0674 C.ar    1  UNL1        0.1428
     23 C          67.4427   92.0228   10.9371 C.ar    1  UNL1        0.0576
     24 C          68.5966   92.2654   10.0098 C.ar    1  UNL1        0.1019
     25 N          68.6642   93.5344    9.2129 N.ar    1  UNL1       -0.2435
     26 C          67.5781   94.5607    9.3432 C.ar    1  UNL1        0.0873
     27 C          67.6458   95.8297    8.5462 C.ar    1  UNL1        0.0399
     28 C          66.5596   96.8559    8.6765 C.ar    1  UNL1        0.1004
     29 N          65.4058   96.6132    9.6038 N.ar    1  UNL1       -0.2421
     30 C          65.3381   95.3443   10.4007 C.ar    1  UNL1        0.1034
     31 C          66.4242   94.3180   10.2704 C.ar    1  UNL1        0.0708
@<TRIPOS>BOND
     1    19    20    1
     2    20     7    1
     3     7     8    1
     4     8     9   am
     5     9    10    2
     6     9    12    1
     7    12    13   ar
     8    13    14   ar
     9    14    15   ar
    10    15    16    1
    11    15    17   ar
    12    17    18   ar
    13     1     7    1
    14     1     2    1
    15     2     3    1
    16     3     4    1
    17     4    21    1
    18    21    22    1
    19    22    23   ar
    20    23    24   ar
    21    24    25   ar
    22    25    26   ar
    23    26    27   ar
    24    27    28   ar
    25    28    29   ar
    26    29    30   ar
    27    30    31   ar
    28     4     5    1
    29     6     5    1
    30    18    12   ar
    31     6     1    1
    32     6     2    1
    33    31    22   ar
    34    31    26   ar
    35     8    11    1
@<TRIPOS>MOLECULE
*****
 31 35 0 0 0
SMALL
GASTEIGER

@<TRIPOS>ATOM
      1 C          61.8760   88.4817   10.8905 C.3     1  UNL1        0.0182
      2 C          62.7506   89.2773   11.8136 C.3     1  UNL1        0.0053
      3 C          63.6503   90.2675   12.4918 C.3     1  UNL1        0.0436
      4 C          63.9534   91.3640   11.5142 C.3     1  UNL1        0.1659
      5 C          63.2410   91.0516   10.2317 C.3     1  UNL1        0.0436
      6 C          62.4976   89.7620   10.4167 C.3     1  UNL1        0.0053
      7 C          61.0121   87.2831   10.6312 C.3     1  UNL1        0.0718
      8 N          61.2381   86.0151   11.4000 N.am    1  UNL1       -0.3025
      9 C          62.2863   85.0415   10.9493 C.2     1  UNL1        0.2458
     10 O          63.1086   85.3359    9.7297 O.2     1  UNL1       -0.2701
     11 H          60.6984   85.8220   12.2004 H       1  UNL1        0.1497
     12 C          62.5124   83.7735   11.7182 C.ar    1  UNL1        0.0534
     13 C          62.7891   82.4928   10.9879 C.ar    1  UNL1        0.0054
     14 C          63.0152   81.2248   11.7568 C.ar    1  UNL1        0.0115
     15 C          62.9646   81.2375   13.2559 C.ar    1  UNL1        0.0577
     16 CL         63.1906   79.9696   14.0247 Cl      1  UNL1       -0.0822
     17 C          62.6879   82.5183   13.9861 C.ar    1  UNL1        0.0115
     18 C          62.4618   83.7862   13.2172 C.ar    1  UNL1        0.0054
     19 C          60.0019   86.5062    8.3671 C.3     1  UNL1        0.0017
     20 C          59.9222   87.3526    9.6029 C.3     1  UNL1        0.0196
     21 O          64.8173   92.5625   11.7735 O.3     1  UNL1       -0.4790
     22 C          66.2713   92.3835   12.0956 C.ar    1  UNL1        0.1428
     23 C          67.2645   92.1780   10.9905 C.ar    1  UNL1        0.0576
     24 C          68.7185   91.9990   11.3126 C.ar    1  UNL1        0.1019
     25 N          69.1793   92.0254   12.7398 N.ar    1  UNL1       -0.2435
     26 C          68.1861   92.2309   13.8450 C.ar    1  UNL1        0.0873
     27 C          68.6469   92.2574   15.2721 C.ar    1  UNL1        0.0399
     28 C          67.6537   92.4628   16.3772 C.ar    1  UNL1        0.1004
     29 N          66.1997   92.6419   16.0551 N.ar    1  UNL1       -0.2421
     30 C          65.7389   92.6154   14.6280 C.ar    1  UNL1        0.1034
     31 C          66.7321   92.4099   13.5229 C.ar    1  UNL1        0.0708
@<TRIPOS>BOND
     1    19    20    1
     2    20     7    1
     3     7     8    1
     4     8     9   am
     5     9    10    2
     6     9    12    1
     7    12    13   ar
     8    13    14   ar
     9    14    15   ar
    10    15    16    1
    11    15    17   ar
    12    17    18   ar
    13     1     7    1
    14     1     2    1
    15     2     3    1
    16     3     4    1
    17     4    21    1
    18    21    22    1
    19    22    23   ar
    20    23    24   ar
    21    24    25   ar
    22    25    26   ar
    23    26    27   ar
    24    27    28   ar
    25    28    29   ar
    26    29    30   ar
    27    30    31   ar
    28     4     5    1
    29     6     5    1
    30    18    12   ar
    31     6     1    1
    32     6     2    1
    33    31    22   ar
    34    31    26   ar
    35     8    11    1
@<TRIPOS>MOLECULE
*****
 31 35 0 0 0
SMALL
GASTEIGER

@<TRIPOS>ATOM
      1 C          62.6133   89.2872   11.4799 C.3     1  UNL1        0.0182
      2 C          63.4520   90.0317   12.4760 C.3     1  UNL1        0.0053
      3 C          64.3301   90.9802   13.2372 C.3     1  UNL1        0.0436
      4 C          64.6935   92.1115   12.3217 C.3     1  UNL1        0.1659
      5 C          64.0401   91.8622   10.9947 C.3     1  UNL1        0.0436
      6 C          63.2728   90.5768   11.0901 C.3     1  UNL1        0.0053
      7 C          61.7483   88.1127   11.1298 C.3     1  UNL1        0.0718
      8 N          61.9429   86.8020   11.8327 N.am    1  UNL1       -0.3025
      9 C          62.4268   85.6056   11.0681 C.2     1  UNL1        0.2458
     10 O          62.7161   85.7201    9.6007 O.2     1  UNL1       -0.2701
     11 H          61.7530   86.7268   12.7958 H       1  UNL1        0.1497
     12 C          62.6214   84.2948   11.7709 C.ar    1  UNL1        0.0534
     13 C          62.9389   83.0600   10.9807 C.ar    1  UNL1        0.0054
     14 C          63.1336   81.7492   11.6835 C.ar    1  UNL1        0.0115
     15 C          63.0107   81.6732   13.1766 C.ar    1  UNL1        0.0577
     16 CL         63.2053   80.3624   13.8794 Cl      1  UNL1       -0.0822
     17 C          62.6932   82.9081   13.9668 C.ar    1  UNL1        0.0115
     18 C          62.4985   84.2188   13.2639 C.ar    1  UNL1        0.0054
     19 C          60.1871   89.6086    9.6894 C.3     1  UNL1        0.0017
     20 C          60.6887   88.2491   10.0769 C.3     1  UNL1        0.0196
     21 O          65.5585   93.2859   12.6717 O.3     1  UNL1       -0.4790
     22 C          66.0970   94.1706   11.5867 C.ar    1  UNL1        0.1428
     23 C          65.7341   95.6257   11.5562 C.ar    1  UNL1        0.0576
     24 C          66.2726   96.5104   10.4711 C.ar    1  UNL1        0.1019
     25 N          67.1740   95.9400    9.4166 N.ar    1  UNL1       -0.2435
     26 C          67.5369   94.4848    9.4470 C.ar    1  UNL1        0.0873
     27 C          68.4383   93.9144    8.3925 C.ar    1  UNL1        0.0399
     28 C          68.8012   92.4594    8.4230 C.ar    1  UNL1        0.1004
     29 N          68.2627   91.5746    9.5080 N.ar    1  UNL1       -0.2421
     30 C          67.3613   92.1450   10.5626 C.ar    1  UNL1        0.1034
     31 C          66.9984   93.6001   10.5321 C.ar    1  UNL1        0.0708
@<TRIPOS>BOND
     1    19    20    1
     2    20     7    1
     3     7     8    1
     4     8     9   am
     5     9    10    2
     6     9    12    1
     7    12    13   ar
     8    13    14   ar
     9    14    15   ar
    10    15    16    1
    11    15    17   ar
    12    17    18   ar
    13     1     7    1
    14     1     2    1
    15     2     3    1
    16     3     4    1
    17     4    21    1
    18    21    22    1
    19    22    23   ar
    20    23    24   ar
    21    24    25   ar
    22    25    26   ar
    23    26    27   ar
    24    27    28   ar
    25    28    29   ar
    26    29    30   ar
    27    30    31   ar
    28     4     5    1
    29     6     5    1
    30    18    12   ar
    31     6     1    1
    32     6     2    1
    33    31    22   ar
    34    31    26   ar
    35     8    11    1
@<TRIPOS>MOLECULE
*****
 31 35 0 0 0
SMALL
GASTEIGER

@<TRIPOS>ATOM
      1 C          61.8522   87.4605    9.5449 C.3     1  UNL1        0.0182
      2 C          61.8684   86.2008   10.3592 C.3     1  UNL1        0.0053
      3 C          62.0657   84.8326   10.9415 C.3     1  UNL1        0.0436
      4 C          62.9356   84.0503   10.0028 C.3     1  UNL1        0.1659
      5 C          63.2759   84.9349    8.8402 C.3     1  UNL1        0.0436
      6 C          62.6163   86.2640    9.0604 C.3     1  UNL1        0.0053
      7 C          61.4016   88.8785    9.3545 C.3     1  UNL1        0.0718
      8 N          62.2954   90.0110    9.7651 N.am    1  UNL1       -0.3025
      9 C          62.9885   89.9752   11.0948 C.2     1  UNL1        0.2458
     10 O          62.7878   88.8069   12.0140 O.2     1  UNL1       -0.2701
     11 H          62.4271   90.7778    9.1618 H       1  UNL1        0.1497
     12 C          63.8824   91.1077   11.5055 C.ar    1  UNL1        0.0534
     13 C          64.3285   91.2316   12.9322 C.ar    1  UNL1        0.0054
     14 C          65.2223   92.3641   13.3429 C.ar    1  UNL1        0.0115
     15 C          65.6700   93.3726   12.3268 C.ar    1  UNL1        0.0577
     16 CL         66.5638   94.5051   12.7374 Cl      1  UNL1       -0.0822
     17 C          65.2239   93.2486   10.9000 C.ar    1  UNL1        0.0115
     18 C          64.3301   92.1161   10.4894 C.ar    1  UNL1        0.0054
     19 C          59.4196   88.1654    7.8336 C.3     1  UNL1        0.0017
     20 C          60.0573   89.1640    8.7534 C.3     1  UNL1        0.0196
     21 O          63.3862   82.6323   10.1932 O.3     1  UNL1       -0.4790
     22 C          63.2325   81.9696   11.5301 C.ar    1  UNL1        0.1428
     23 C          62.6533   80.5890   11.6206 C.ar    1  UNL1        0.0576
     24 C          62.4997   79.9263   12.9575 C.ar    1  UNL1        0.1019
     25 N          62.9253   80.6442   14.2038 N.ar    1  UNL1       -0.2435
     26 C          63.5045   82.0250   14.1133 C.ar    1  UNL1        0.0873
     27 C          63.9300   82.7430   15.3596 C.ar    1  UNL1        0.0399
     28 C          64.5092   84.1236   15.2691 C.ar    1  UNL1        0.1004
     29 N          64.6629   84.7863   13.9322 N.ar    1  UNL1       -0.2421
     30 C          64.2373   84.0683   12.6859 C.ar    1  UNL1        0.1034
     31 C          63.6581   82.6877   12.7764 C.ar    1  UNL1        0.0708
@<TRIPOS>BOND
     1    19    20    1
     2    20     7    1
     3     7     8    1
     4     8     9   am
     5     9    10    2
     6     9    12    1
     7    12    13   ar
     8    13    14   ar
     9    14    15   ar
    10    15    16    1
    11    15    17   ar
    12    17    18   ar
    13     1     7    1
    14     1     2    1
    15     2     3    1
    16     3     4    1
    17     4    21    1
    18    21    22    1
    19    22    23   ar
    20    23    24   ar
    21    24    25   ar
    22    25    26   ar
    23    26    27   ar
    24    27    28   ar
    25    28    29   ar
    26    29    30   ar
    27    30    31   ar
    28     4     5    1
    29     6     5    1
    30    18    12   ar
    31     6     1    1
    32     6     2    1
    33    31    22   ar
    34    31    26   ar
    35     8    11    1
@<TRIPOS>MOLECULE
*****
 31 35 0 0 0
SMALL
GASTEIGER

@<TRIPOS>ATOM
      1 C          62.2181   87.9929   11.0081 C.3     1  UNL1        0.0182
      2 C          63.0164   88.6703   12.0823 C.3     1  UNL1        0.0053
      3 C          63.7999   89.5958   12.9652 C.3     1  UNL1        0.0436
      4 C          63.8958   90.9242   12.2752 C.3     1  UNL1        0.1659
      5 C          63.1716   90.8197   10.9658 C.3     1  UNL1        0.0436
      6 C          62.6281   89.4267   10.8465 C.3     1  UNL1        0.0053
      7 C          61.5204   86.7740   10.4812 C.3     1  UNL1        0.0718
      8 N          61.5630   85.4911   11.2572 N.am    1  UNL1       -0.3025
      9 C          62.5790   84.4417   10.9161 C.2     1  UNL1        0.2458
     10 O          63.5523   84.6751    9.7988 O.2     1  UNL1       -0.2701
     11 H          60.9242   85.3379   11.9905 H       1  UNL1        0.1497
     12 C          62.6217   83.1587   11.6921 C.ar    1  UNL1        0.0534
     13 C          62.9163   81.8666   10.9895 C.ar    1  UNL1        0.0054
     14 C          62.9590   80.5836   11.7656 C.ar    1  UNL1        0.0115
     15 C          62.7071   80.5928   13.2443 C.ar    1  UNL1        0.0577
     16 CL         62.7498   79.3099   14.0203 Cl      1  UNL1       -0.0822
     17 C          62.4125   81.8850   13.9469 C.ar    1  UNL1        0.0115
     18 C          62.3698   83.1679   13.1708 C.ar    1  UNL1        0.0054
     19 C          60.1567   88.1275    8.7323 C.3     1  UNL1        0.0017
     20 C          60.7800   86.8381    9.1782 C.3     1  UNL1        0.0196
     21 O          64.5935   92.1430   12.8020 O.3     1  UNL1       -0.4790
     22 C          65.0132   92.2039   14.2408 C.ar    1  UNL1        0.1428
     23 C          63.9822   92.1193   15.3270 C.ar    1  UNL1        0.0576
     24 C          64.4019   92.1801   16.7658 C.ar    1  UNL1        0.1019
     25 N          65.8526   92.3255   17.1184 N.ar    1  UNL1       -0.2435
     26 C          66.8837   92.4102   16.0322 C.ar    1  UNL1        0.0873
     27 C          68.3343   92.5556   16.3847 C.ar    1  UNL1        0.0399
     28 C          69.3653   92.6402   15.2985 C.ar    1  UNL1        0.1004
     29 N          68.9456   92.5794   13.8597 N.ar    1  UNL1       -0.2421
     30 C          67.4949   92.4339   13.5071 C.ar    1  UNL1        0.1034
     31 C          66.4639   92.3493   14.5934 C.ar    1  UNL1        0.0708
@<TRIPOS>BOND
     1    19    20    1
     2    20     7    1
     3     7     8    1
     4     8     9   am
     5     9    10    2
     6     9    12    1
     7    12    13   ar
     8    13    14   ar
     9    14    15   ar
    10    15    16    1
    11    15    17   ar
    12    17    18   ar
    13     1     7    1
    14     1     2    1
    15     2     3    1
    16     3     4    1
    17     4    21    1
    18    21    22    1
    19    22    23   ar
    20    23    24   ar
    21    24    25   ar
    22    25    26   ar
    23    26    27   ar
    24    27    28   ar
    25    28    29   ar
    26    29    30   ar
    27    30    31   ar
    28     4     5    1
    29     6     5    1
    30    18    12   ar
    31     6     1    1
    32     6     2    1
    33    31    22   ar
    34    31    26   ar
    35     8    11    1
@<TRIPOS>MOLECULE
*****
 31 35 0 0 0
SMALL
GASTEIGER

@<TRIPOS>ATOM
      1 C          62.0664   90.1371   11.9587 C.3     1  UNL1        0.0182
      2 C          63.0935   90.7178   12.8850 C.3     1  UNL1        0.0053
      3 C          64.2240   91.4430   13.5528 C.3     1  UNL1        0.0436
      4 C          64.9333   92.2558   12.5106 C.3     1  UNL1        0.1659
      5 C          64.2412   92.0330   11.1987 C.3     1  UNL1        0.0436
      6 C          63.1042   91.0825   11.4299 C.3     1  UNL1        0.0053
      7 C          60.8742   89.2561   11.7291 C.3     1  UNL1        0.0718
      8 N          60.7944   88.4091   10.4938 N.am    1  UNL1       -0.3025
      9 C          61.7184   87.2397   10.3253 C.2     1  UNL1        0.2458
     10 O          62.7223   86.9172   11.3922 O.2     1  UNL1       -0.2701
     11 H          60.1355   88.6207    9.7936 H       1  UNL1        0.1497
     12 C          61.6386   86.3926    9.0899 C.ar    1  UNL1        0.0534
     13 C          60.3453   86.2828    8.3381 C.ar    1  UNL1        0.0054
     14 C          60.2655   85.4357    7.1027 C.ar    1  UNL1        0.0115
     15 C          61.4790   84.6984    6.6192 C.ar    1  UNL1        0.0577
     16 CL         61.3992   83.8513    5.3838 Cl      1  UNL1       -0.0822
     17 C          62.7724   84.8082    7.3711 C.ar    1  UNL1        0.0115
     18 C          62.8521   85.6553    8.6064 C.ar    1  UNL1        0.0054
     19 C          58.3610   88.9175   12.2940 C.3     1  UNL1        0.0017
     20 C          59.7619   89.2222   12.7349 C.3     1  UNL1        0.0196
     21 O          66.1254   93.1368   12.7402 O.3     1  UNL1       -0.4790
     22 C          66.4927   94.1806   11.7274 C.ar    1  UNL1        0.1428
     23 C          66.1426   95.6185   11.9716 C.ar    1  UNL1        0.0576
     24 C          66.5099   96.6623   10.9589 C.ar    1  UNL1        0.1019
     25 N          67.2274   96.2681    9.7020 N.ar    1  UNL1       -0.2435
     26 C          67.5776   94.8301    9.4578 C.ar    1  UNL1        0.0873
     27 C          68.2951   94.4360    8.2009 C.ar    1  UNL1        0.0399
     28 C          68.6453   92.9980    7.9567 C.ar    1  UNL1        0.1004
     29 N          68.2779   91.9543    8.9695 N.ar    1  UNL1       -0.2421
     30 C          67.5605   92.3484   10.2263 C.ar    1  UNL1        0.1034
     31 C          67.2103   93.7863   10.4705 C.ar    1  UNL1        0.0708
@<TRIPOS>BOND
     1    19    20    1
     2    20     7    1
     3     7     8    1
     4     8     9   am
     5     9    10    2
     6     9    12    1
     7    12    13   ar
     8    13    14   ar
     9    14    15   ar
    10    15    16    1
    11    15    17   ar
    12    17    18   ar
    13     1     7    1
    14     1     2    1
    15     2     3    1
    16     3     4    1
    17     4    21    1
    18    21    22    1
    19    22    23   ar
    20    23    24   ar
    21    24    25   ar
    22    25    26   ar
    23    26    27   ar
    24    27    28   ar
    25    28    29   ar
    26    29    30   ar
    27    30    31   ar
    28     4     5    1
    29     6     5    1
    30    18    12   ar
    31     6     1    1
    32     6     2    1
    33    31    22   ar
    34    31    26   ar
    35     8    11    1
