@<TRIPOS>MOLECULE
*****
 30 34 0 0 0
SMALL
GASTEIGER

@<TRIPOS>ATOM
      1 C          63.4678   89.8621   11.6185 C.ar    1  UNL1        0.0028
      2 C          63.7291   90.7481   10.4368 C.ar    1  UNL1        0.0002
      3 C          64.5072   92.0187   10.6096 C.ar    1  UNL1        0.0029
      4 C          65.0240   92.4034   11.9642 C.ar    1  UNL1        0.0349
      5 C          65.8022   93.6741   12.1370 C.ar    1  UNL1        0.1535
      6 N          66.3189   94.0588   13.4916 N.ar    1  UNL1       -0.1329
      7 N          66.0576   93.1727   14.6734 N.ar    1  UNL1       -0.1452
      8 C          65.2795   91.9021   14.5006 C.ar    1  UNL1        0.1222
      9 C          64.7627   91.5174   13.1460 C.ar    1  UNL1        0.0237
     10 C          63.9846   90.2467   12.9732 C.ar    1  UNL1        0.0018
     11 C          62.7794   85.1111   13.0804 C.ar    1  UNL1        0.1705
     12 N          63.8931   85.7569   13.8499 N.ar    1  UNL1       -0.0621
     13 O          64.0383   87.1671   13.3599 O.2     1  UNL1       -0.3522
     14 C          63.0142   87.3928   12.2874 C.ar    1  UNL1        0.1777
     15 C          62.6897   88.5913   11.4457 C.ar    1  UNL1        0.0333
     16 C          61.5870   88.5191   10.4314 C.ar    1  UNL1       -0.0188
     17 C          61.2625   89.7176    9.5898 C.3     1  UNL1        0.0311
     18 C          60.8089   87.2484   10.2586 C.ar    1  UNL1       -0.0040
     19 C          61.1334   86.0499   11.1002 C.ar    1  UNL1        0.0057
     20 C          62.2361   86.1222   12.1146 C.ar    1  UNL1        0.0717
     21 C          62.3598   83.0399   14.5917 C.3     1  UNL1        0.1097
     22 N          62.2940   83.7017   13.2472 N.pl3   1  UNL1       -0.3140
     23 H          61.9322   83.2109   12.4742 H       1  UNL1        0.1483
     24 N          66.0635   94.5601   10.9552 N.pl3   1  UNL1       -0.2884
     25 C          65.3077   95.8465   10.8005 C.3     1  UNL1        0.1242
     26 C          65.5691   96.7325    9.6187 C.3     1  UNL1        0.1636
     27 O          66.5862   96.3322    8.5915 O.3     1  UNL1       -0.3502
     28 C          67.3420   95.0458    8.7462 C.3     1  UNL1        0.1618
     29 C          67.0807   94.1598    9.9280 C.3     1  UNL1        0.1039
     30 C          67.8365   92.8734   10.0827 C.3     1  UNL1        0.0241
@<TRIPOS>BOND
     1    21    22    1
     2    22    11    1
     3    11    12   ar
     4    12    13   ar
     5    13    14   ar
     6    14    15   ar
     7    15     1    1
     8     1     2   ar
     9     2     3   ar
    10     3     4   ar
    11     4     5   ar
    12     5    24    1
    13    24    25    1
    14    25    26    1
    15    26    27    1
    16    27    28    1
    17    28    29    1
    18    29    30    1
    19     5     6   ar
    20     6     7   ar
    21     7     8   ar
    22     8     9   ar
    23     9    10   ar
    24    15    16   ar
    25    16    17    1
    26    16    18   ar
    27    18    19   ar
    28    19    20   ar
    29    20    11   ar
    30    20    14   ar
    31    10     1   ar
    32     9     4   ar
    33    29    24    1
    34    22    23    1
@<TRIPOS>MOLECULE
*****
 30 34 0 0 0
SMALL
GASTEIGER

@<TRIPOS>ATOM
      1 C          64.0301   89.1447   13.9727 C.ar    1  UNL1        0.0028
      2 C          64.2786   87.7406   14.4380 C.ar    1  UNL1        0.0002
      3 C          63.8039   86.5818   13.6123 C.ar    1  UNL1        0.0029
      4 C          63.0807   86.8272   12.3212 C.ar    1  UNL1        0.0349
      5 C          62.6061   85.6683   11.4955 C.ar    1  UNL1        0.1535
      6 N          61.8829   85.9137   10.2044 N.ar    1  UNL1       -0.1329
      7 N          61.6344   87.3179    9.7391 N.ar    1  UNL1       -0.1452
      8 C          62.1090   88.4767   10.5649 C.ar    1  UNL1        0.1222
      9 C          62.8322   88.2313   11.8559 C.ar    1  UNL1        0.0237
     10 C          63.3069   89.3901   12.6817 C.ar    1  UNL1        0.0018
     11 C          67.2117   93.0037   14.3821 C.ar    1  UNL1        0.1705
     12 N          67.4256   92.2616   13.0963 N.ar    1  UNL1       -0.0621
     13 O          66.4437   91.1288   13.0462 O.2     1  UNL1       -0.3522
     14 C          65.6230   91.1708   14.3010 C.ar    1  UNL1        0.1777
     15 C          64.5047   90.3036   14.7985 C.ar    1  UNL1        0.0333
     16 C          63.8612   90.5952   16.1216 C.ar    1  UNL1       -0.0188
     17 C          62.7429   89.7280   16.6191 C.3     1  UNL1        0.0311
     18 C          64.3359   91.7541   16.9474 C.ar    1  UNL1       -0.0040
     19 C          65.4541   92.6213   16.4499 C.ar    1  UNL1        0.0057
     20 C          66.0977   92.3296   15.1267 C.ar    1  UNL1        0.0717
     21 C          68.9823   94.0808   15.9490 C.3     1  UNL1        0.1097
     22 N          67.9775   94.2085   14.8426 N.pl3   1  UNL1       -0.3140
     23 H          67.8207   95.0831   14.4186 H       1  UNL1        0.1483
     24 N          62.8546   84.2642   11.9608 N.pl3   1  UNL1       -0.2884
     25 C          62.4234   83.8417   13.3340 C.3     1  UNL1        0.1242
     26 C          62.6719   82.4375   13.7992 C.3     1  UNL1        0.1636
     27 O          63.3516   81.4558   12.8914 O.3     1  UNL1       -0.3502
     28 C          63.7828   81.8783   11.5182 C.3     1  UNL1        0.1618
     29 C          63.5343   83.2824   11.0529 C.3     1  UNL1        0.1039
     30 C          63.9655   83.7049    9.6797 C.3     1  UNL1        0.0241
@<TRIPOS>BOND
     1    21    22    1
     2    22    11    1
     3    11    12   ar
     4    12    13   ar
     5    13    14   ar
     6    14    15   ar
     7    15     1    1
     8     1     2   ar
     9     2     3   ar
    10     3     4   ar
    11     4     5   ar
    12     5    24    1
    13    24    25    1
    14    25    26    1
    15    26    27    1
    16    27    28    1
    17    28    29    1
    18    29    30    1
    19     5     6   ar
    20     6     7   ar
    21     7     8   ar
    22     8     9   ar
    23     9    10   ar
    24    15    16   ar
    25    16    17    1
    26    16    18   ar
    27    18    19   ar
    28    19    20   ar
    29    20    11   ar
    30    20    14   ar
    31    10     1   ar
    32     9     4   ar
    33    29    24    1
    34    22    23    1
@<TRIPOS>MOLECULE
*****
 30 34 0 0 0
SMALL
GASTEIGER

@<TRIPOS>ATOM
      1 C          63.9523   89.2204   13.8556 C.ar    1  UNL1        0.0028
      2 C          63.1712   89.5239   12.6116 C.ar    1  UNL1        0.0002
      3 C          62.6510   88.4036   11.7606 C.ar    1  UNL1        0.0029
      4 C          62.9120   86.9797   12.1536 C.ar    1  UNL1        0.0349
      5 C          62.3918   85.8593   11.3026 C.ar    1  UNL1        0.1535
      6 N          62.6527   84.4355   11.6956 N.ar    1  UNL1       -0.1329
      7 N          63.4338   84.1320   12.9398 N.ar    1  UNL1       -0.1452
      8 C          63.9540   85.2523   13.7907 C.ar    1  UNL1        0.1222
      9 C          63.6931   86.6762   13.3977 C.ar    1  UNL1        0.0237
     10 C          64.2132   87.7965   14.2487 C.ar    1  UNL1        0.0018
     11 C          67.2076   93.0137   14.2986 C.ar    1  UNL1        0.1705
     12 N          67.3671   92.3165   12.9802 N.ar    1  UNL1       -0.0621
     13 O          66.3659   91.2010   12.9217 O.2     1  UNL1       -0.3522
     14 C          65.5877   91.2090   14.2040 C.ar    1  UNL1        0.1777
     15 C          64.4725   90.3407   14.7067 C.ar    1  UNL1        0.0333
     16 C          63.8776   90.5929   16.0603 C.ar    1  UNL1       -0.0188
     17 C          62.7625   89.7247   16.5630 C.3     1  UNL1        0.0311
     18 C          64.3978   91.7132   16.9114 C.ar    1  UNL1       -0.0040
     19 C          65.5130   92.5814   16.4087 C.ar    1  UNL1        0.0057
     20 C          66.1079   92.3293   15.0549 C.ar    1  UNL1        0.0717
     21 C          68.9172   94.0456   15.9607 C.3     1  UNL1        0.1097
     22 N          68.0074   94.1891   14.7767 N.pl3   1  UNL1       -0.3140
     23 H          67.9353   95.0548   14.3135 H       1  UNL1        0.1483
     24 N          61.6107   86.1629   10.0585 N.pl3   1  UNL1       -0.2884
     25 C          60.3533   86.9764   10.1422 C.3     1  UNL1        0.1242
     26 C          59.5721   87.2800    8.8981 C.3     1  UNL1        0.1636
     27 O          60.0485   86.7699    7.5703 O.3     1  UNL1       -0.3502
     28 C          61.3059   85.9564    7.4866 C.3     1  UNL1        0.1618
     29 C          62.0870   85.6528    8.7307 C.3     1  UNL1        0.1039
     30 C          63.3444   84.8392    8.6470 C.3     1  UNL1        0.0241
@<TRIPOS>BOND
     1    21    22    1
     2    22    11    1
     3    11    12   ar
     4    12    13   ar
     5    13    14   ar
     6    14    15   ar
     7    15     1    1
     8     1     2   ar
     9     2     3   ar
    10     3     4   ar
    11     4     5   ar
    12     5    24    1
    13    24    25    1
    14    25    26    1
    15    26    27    1
    16    27    28    1
    17    28    29    1
    18    29    30    1
    19     5     6   ar
    20     6     7   ar
    21     7     8   ar
    22     8     9   ar
    23     9    10   ar
    24    15    16   ar
    25    16    17    1
    26    16    18   ar
    27    18    19   ar
    28    19    20   ar
    29    20    11   ar
    30    20    14   ar
    31    10     1   ar
    32     9     4   ar
    33    29    24    1
    34    22    23    1
@<TRIPOS>MOLECULE
*****
 30 34 0 0 0
SMALL
GASTEIGER

@<TRIPOS>ATOM
      1 C          63.5161   90.0038   11.6355 C.ar    1  UNL1        0.0028
      2 C          63.8571   90.9066   10.4872 C.ar    1  UNL1        0.0002
      3 C          64.6817   92.1376   10.7203 C.ar    1  UNL1        0.0029
      4 C          65.1653   92.4659   12.1018 C.ar    1  UNL1        0.0349
      5 C          65.9900   93.6971   12.3349 C.ar    1  UNL1        0.1535
      6 N          66.4736   94.0253   13.7163 N.ar    1  UNL1       -0.1329
      7 N          66.1325   93.1225   14.8647 N.ar    1  UNL1       -0.1452
      8 C          65.3078   91.8914   14.6315 C.ar    1  UNL1        0.1222
      9 C          64.8243   91.5631   13.2501 C.ar    1  UNL1        0.0237
     10 C          63.9996   90.3320   13.0169 C.ar    1  UNL1        0.0018
     11 C          59.9090   87.7980    8.9324 C.ar    1  UNL1        0.1705
     12 N          60.1587   89.1990    8.4585 N.ar    1  UNL1       -0.0621
     13 O          61.2433   89.7899    9.3097 O.2     1  UNL1       -0.3522
     14 C          61.6640   88.7540   10.3096 C.ar    1  UNL1        0.1777
     15 C          62.6914   88.7726   11.4023 C.ar    1  UNL1        0.0333
     16 C          62.8942   87.5602   12.2619 C.ar    1  UNL1       -0.0188
     17 C          63.9216   87.5789   13.3546 C.3     1  UNL1        0.0311
     18 C          62.0695   86.3291   12.0288 C.ar    1  UNL1       -0.0040
     19 C          61.0421   86.3104   10.9360 C.ar    1  UNL1        0.0057
     20 C          60.8393   87.5229   10.0764 C.ar    1  UNL1        0.0717
     21 C          59.3356   85.8123    7.3582 C.3     1  UNL1        0.1097
     22 N          58.9053   86.8401    8.3624 N.pl3   1  UNL1       -0.3140
     23 H          57.9640   86.8861    8.6473 H       1  UNL1        0.1483
     24 N          66.3310   94.5999   11.1866 N.pl3   1  UNL1       -0.2884
     25 C          65.6900   95.9517   11.0794 C.3     1  UNL1        0.1242
     26 C          66.0311   96.8545    9.9310 C.3     1  UNL1        0.1636
     27 O          67.0132   96.4055    8.8900 O.3     1  UNL1       -0.3502
     28 C          67.6542   95.0536    8.9972 C.3     1  UNL1        0.1618
     29 C          67.3132   94.1508   10.1455 C.3     1  UNL1        0.1039
     30 C          67.9542   92.7989   10.2528 C.3     1  UNL1        0.0241
@<TRIPOS>BOND
     1    21    22    1
     2    22    11    1
     3    11    12   ar
     4    12    13   ar
     5    13    14   ar
     6    14    15   ar
     7    15     1    1
     8     1     2   ar
     9     2     3   ar
    10     3     4   ar
    11     4     5   ar
    12     5    24    1
    13    24    25    1
    14    25    26    1
    15    26    27    1
    16    27    28    1
    17    28    29    1
    18    29    30    1
    19     5     6   ar
    20     6     7   ar
    21     7     8   ar
    22     8     9   ar
    23     9    10   ar
    24    15    16   ar
    25    16    17    1
    26    16    18   ar
    27    18    19   ar
    28    19    20   ar
    29    20    11   ar
    30    20    14   ar
    31    10     1   ar
    32     9     4   ar
    33    29    24    1
    34    22    23    1
@<TRIPOS>MOLECULE
*****
 30 34 0 0 0
SMALL
GASTEIGER

@<TRIPOS>ATOM
      1 C          63.1408   86.0786   13.1051 C.ar    1  UNL1        0.0028
      2 C          63.9844   86.8862   14.0465 C.ar    1  UNL1        0.0002
      3 C          64.1702   88.3563   13.8138 C.ar    1  UNL1        0.0029
      4 C          63.5124   89.0189   12.6399 C.ar    1  UNL1        0.0349
      5 C          63.6982   90.4891   12.4073 C.ar    1  UNL1        0.1535
      6 N          63.0404   91.1517   11.2333 N.ar    1  UNL1       -0.1329
      7 N          62.1968   90.3441   10.2919 N.ar    1  UNL1       -0.1452
      8 C          62.0110   88.8740   10.5245 C.ar    1  UNL1        0.1222
      9 C          62.6688   88.2114   11.6985 C.ar    1  UNL1        0.0237
     10 C          62.4830   86.7412   11.9312 C.ar    1  UNL1        0.0018
     11 C          63.2249   81.4592   11.1466 C.ar    1  UNL1        0.1705
     12 N          63.5713   82.4900   10.1136 N.ar    1  UNL1       -0.0621
     13 O          63.5255   83.8379   10.7703 O.2     1  UNL1       -0.3522
     14 C          63.1509   83.6399   12.2092 C.ar    1  UNL1        0.1777
     15 C          62.9550   84.6084   13.3378 C.ar    1  UNL1        0.0333
     16 C          62.5733   84.1068   14.6988 C.ar    1  UNL1       -0.0188
     17 C          62.3773   85.0753   15.8274 C.3     1  UNL1        0.0311
     18 C          62.3874   82.6366   14.9314 C.ar    1  UNL1       -0.0040
     19 C          62.5834   81.6681   13.8029 C.ar    1  UNL1        0.0057
     20 C          62.9651   82.1698   12.4418 C.ar    1  UNL1        0.0717
     21 C          62.7797   79.4400    9.5735 C.3     1  UNL1        0.1097
     22 N          63.1512   79.9777   10.9236 N.pl3   1  UNL1       -0.3140
     23 H          63.3468   79.3582   11.6634 H       1  UNL1        0.1483
     24 N          64.5418   91.2966   13.3486 N.pl3   1  UNL1       -0.2884
     25 C          64.3435   91.1700   14.8300 C.3     1  UNL1        0.1242
     26 C          65.1872   91.9776   15.7714 C.3     1  UNL1        0.1636
     27 O          66.2291   92.9117   15.2313 O.3     1  UNL1       -0.3502
     28 C          66.4274   93.0383   13.7499 C.3     1  UNL1        0.1618
     29 C          65.5838   92.2308   12.8085 C.3     1  UNL1        0.1039
     30 C          65.7821   92.3574   11.3271 C.3     1  UNL1        0.0241
@<TRIPOS>BOND
     1    21    22    1
     2    22    11    1
     3    11    12   ar
     4    12    13   ar
     5    13    14   ar
     6    14    15   ar
     7    15     1    1
     8     1     2   ar
     9     2     3   ar
    10     3     4   ar
    11     4     5   ar
    12     5    24    1
    13    24    25    1
    14    25    26    1
    15    26    27    1
    16    27    28    1
    17    28    29    1
    18    29    30    1
    19     5     6   ar
    20     6     7   ar
    21     7     8   ar
    22     8     9   ar
    23     9    10   ar
    24    15    16   ar
    25    16    17    1
    26    16    18   ar
    27    18    19   ar
    28    19    20   ar
    29    20    11   ar
    30    20    14   ar
    31    10     1   ar
    32     9     4   ar
    33    29    24    1
    34    22    23    1
@<TRIPOS>MOLECULE
*****
 30 34 0 0 0
SMALL
GASTEIGER

@<TRIPOS>ATOM
      1 C          62.6637   89.9521   10.7541 C.ar    1  UNL1        0.0028
      2 C          63.1965   91.0463    9.8772 C.ar    1  UNL1        0.0002
      3 C          64.2475   91.9807   10.3989 C.ar    1  UNL1        0.0029
      4 C          64.7657   91.8209   11.7975 C.ar    1  UNL1        0.0349
      5 C          65.8168   92.7554   12.3192 C.ar    1  UNL1        0.1535
      6 N          66.3350   92.5956   13.7177 N.ar    1  UNL1       -0.1329
      7 N          65.8021   91.5014   14.5946 N.ar    1  UNL1       -0.1452
      8 C          64.7511   90.5670   14.0729 C.ar    1  UNL1        0.1222
      9 C          64.2329   90.7268   12.6743 C.ar    1  UNL1        0.0237
     10 C          63.1819   89.7924   12.1526 C.ar    1  UNL1        0.0018
     11 C          61.6477   85.7897    8.1417 C.ar    1  UNL1        0.1705
     12 N          63.1242   86.0483    8.1927 N.ar    1  UNL1       -0.0621
     13 O          63.3482   87.3017    8.9857 O.2     1  UNL1       -0.3522
     14 C          62.0099   87.8176    9.4249 C.ar    1  UNL1        0.1777
     15 C          61.6126   89.0177   10.2324 C.ar    1  UNL1        0.0333
     16 C          60.1642   89.2832   10.5182 C.ar    1  UNL1       -0.0188
     17 C          59.7669   90.4832   11.3258 C.3     1  UNL1        0.0311
     18 C          59.1132   88.3487    9.9966 C.ar    1  UNL1       -0.0040
     19 C          59.5105   87.1487    9.1890 C.ar    1  UNL1        0.0057
     20 C          60.9589   86.8832    8.9032 C.ar    1  UNL1        0.0717
     21 C          61.4334   84.2158    6.0857 C.3     1  UNL1        0.1097
     22 N          60.9774   84.6395    7.4505 N.pl3   1  UNL1       -0.3140
     23 H          60.2381   84.1627    7.8925 H       1  UNL1        0.1483
     24 N          66.3496   93.8495   11.4423 N.pl3   1  UNL1       -0.2884
     25 C          65.8991   95.2649   11.6517 C.3     1  UNL1        0.1242
     26 C          66.4320   96.3591   10.7748 C.3     1  UNL1        0.1636
     27 O          67.4152   96.0378    9.6886 O.3     1  UNL1       -0.3502
     28 C          67.8657   94.6225    9.4792 C.3     1  UNL1        0.1618
     29 C          67.3329   93.5283   10.3560 C.3     1  UNL1        0.1039
     30 C          67.7834   92.1130   10.1467 C.3     1  UNL1        0.0241
@<TRIPOS>BOND
     1    21    22    1
     2    22    11    1
     3    11    12   ar
     4    12    13   ar
     5    13    14   ar
     6    14    15   ar
     7    15     1    1
     8     1     2   ar
     9     2     3   ar
    10     3     4   ar
    11     4     5   ar
    12     5    24    1
    13    24    25    1
    14    25    26    1
    15    26    27    1
    16    27    28    1
    17    28    29    1
    18    29    30    1
    19     5     6   ar
    20     6     7   ar
    21     7     8   ar
    22     8     9   ar
    23     9    10   ar
    24    15    16   ar
    25    16    17    1
    26    16    18   ar
    27    18    19   ar
    28    19    20   ar
    29    20    11   ar
    30    20    14   ar
    31    10     1   ar
    32     9     4   ar
    33    29    24    1
    34    22    23    1
@<TRIPOS>MOLECULE
*****
 30 34 0 0 0
SMALL
GASTEIGER

@<TRIPOS>ATOM
      1 C          63.0251   85.9480   11.9510 C.ar    1  UNL1        0.0028
      2 C          63.8095   86.5926   13.0550 C.ar    1  UNL1        0.0002
      3 C          63.8390   88.0870   13.1804 C.ar    1  UNL1        0.0029
      4 C          63.0839   88.9368   12.2017 C.ar    1  UNL1        0.0349
      5 C          63.1134   90.4313   12.3272 C.ar    1  UNL1        0.1535
      6 N          62.3583   91.2811   11.3485 N.ar    1  UNL1       -0.1329
      7 N          61.5739   90.6364   10.2444 N.ar    1  UNL1       -0.1452
      8 C          61.5444   89.1419   10.1190 C.ar    1  UNL1        0.1222
      9 C          62.2995   88.2922   11.0977 C.ar    1  UNL1        0.0237
     10 C          62.2700   86.7977   10.9723 C.ar    1  UNL1        0.0018
     11 C          62.4413   81.5358   14.2693 C.ar    1  UNL1        0.1705
     12 N          62.3031   82.6755   15.2346 N.ar    1  UNL1       -0.0621
     13 O          62.4890   83.9538   14.4722 O.2     1  UNL1       -0.3522
     14 C          62.7421   83.6041   13.0357 C.ar    1  UNL1        0.1777
     15 C          62.9956   84.4535   11.8256 C.ar    1  UNL1        0.0333
     16 C          63.2197   83.8083   10.4901 C.ar    1  UNL1       -0.0188
     17 C          63.4732   84.6577    9.2799 C.3     1  UNL1        0.0311
     18 C          63.1902   82.3138   10.3646 C.ar    1  UNL1       -0.0040
     19 C          62.9367   81.4645   11.5748 C.ar    1  UNL1        0.0057
     20 C          62.7126   82.1097   12.9103 C.ar    1  UNL1        0.0717
     21 C          62.1577   79.0678   13.5086 C.3     1  UNL1        0.1097
     22 N          62.3281   80.0781   14.6042 N.pl3   1  UNL1       -0.3140
     23 H          62.3655   79.7844   15.5432 H       1  UNL1        0.1483
     24 N          63.8978   91.0760   13.4312 N.pl3   1  UNL1       -0.2884
     25 C          63.5218   90.8283   14.8620 C.3     1  UNL1        0.1242
     26 C          64.3063   91.4730   15.9661 C.3     1  UNL1        0.1636
     27 O          65.4668   92.3654   15.6394 O.3     1  UNL1       -0.3502
     28 C          65.8429   92.6130   14.2085 C.3     1  UNL1        0.1618
     29 C          65.0585   91.9684   13.1045 C.3     1  UNL1        0.1039
     30 C          65.4345   92.2161   11.6737 C.3     1  UNL1        0.0241
@<TRIPOS>BOND
     1    21    22    1
     2    22    11    1
     3    11    12   ar
     4    12    13   ar
     5    13    14   ar
     6    14    15   ar
     7    15     1    1
     8     1     2   ar
     9     2     3   ar
    10     3     4   ar
    11     4     5   ar
    12     5    24    1
    13    24    25    1
    14    25    26    1
    15    26    27    1
    16    27    28    1
    17    28    29    1
    18    29    30    1
    19     5     6   ar
    20     6     7   ar
    21     7     8   ar
    22     8     9   ar
    23     9    10   ar
    24    15    16   ar
    25    16    17    1
    26    16    18   ar
    27    18    19   ar
    28    19    20   ar
    29    20    11   ar
    30    20    14   ar
    31    10     1   ar
    32     9     4   ar
    33    29    24    1
    34    22    23    1
@<TRIPOS>MOLECULE
*****
 30 34 0 0 0
SMALL
GASTEIGER

@<TRIPOS>ATOM
      1 C          62.2366   88.8641   10.4455 C.ar    1  UNL1        0.0028
      2 C          62.8036   90.2200   10.1454 C.ar    1  UNL1        0.0002
      3 C          63.7036   90.8931   11.1388 C.ar    1  UNL1        0.0029
      4 C          64.0367   90.2103   12.4322 C.ar    1  UNL1        0.0349
      5 C          64.9367   90.8835   13.4256 C.ar    1  UNL1        0.1535
      6 N          65.2698   90.2007   14.7190 N.ar    1  UNL1       -0.1329
      7 N          64.7028   88.8447   15.0190 N.ar    1  UNL1       -0.1452
      8 C          63.8028   88.1716   14.0256 C.ar    1  UNL1        0.1222
      9 C          63.4697   88.8544   12.7322 C.ar    1  UNL1        0.0237
     10 C          62.5697   88.1813   11.7389 C.ar    1  UNL1        0.0018
     11 C          61.6106   85.0698    7.2215 C.ar    1  UNL1        0.1705
     12 N          62.9540   84.9987    7.8848 N.ar    1  UNL1       -0.0621
     13 O          63.0668   86.1590    8.8287 O.2     1  UNL1       -0.3522
     14 C          61.7931   86.9472    8.7487 C.ar    1  UNL1        0.1777
     15 C          61.3366   88.1909    9.4521 C.ar    1  UNL1        0.0333
     16 C          59.9800   88.7614    9.1621 C.ar    1  UNL1       -0.0188
     17 C          59.5234   90.0051    9.8654 C.3     1  UNL1        0.0311
     18 C          59.0799   88.0882    8.1687 C.ar    1  UNL1       -0.0040
     19 C          59.5365   86.8445    7.4653 C.ar    1  UNL1        0.0057
     20 C          60.8931   86.2740    7.7554 C.ar    1  UNL1        0.0717
     21 C          61.7071   84.0279    4.8434 C.3     1  UNL1        0.1097
     22 N          61.0782   84.1059    6.2030 N.pl3   1  UNL1       -0.3140
     23 H          60.3159   83.5244    6.4268 H       1  UNL1        0.1483
     24 N          65.5037   92.2394   13.1256 N.pl3   1  UNL1       -0.2884
     25 C          65.4285   92.7924   11.7333 C.3     1  UNL1        0.1242
     26 C          65.9955   94.1484   11.4333 C.3     1  UNL1        0.1636
     27 O          66.6377   94.9512   12.5256 O.3     1  UNL1       -0.3502
     28 C          66.7129   94.3981   13.9179 C.3     1  UNL1        0.1618
     29 C          66.1459   93.0422   14.2179 C.3     1  UNL1        0.1039
     30 C          66.2211   92.4891   15.6102 C.3     1  UNL1        0.0241
@<TRIPOS>BOND
     1    21    22    1
     2    22    11    1
     3    11    12   ar
     4    12    13   ar
     5    13    14   ar
     6    14    15   ar
     7    15     1    1
     8     1     2   ar
     9     2     3   ar
    10     3     4   ar
    11     4     5   ar
    12     5    24    1
    13    24    25    1
    14    25    26    1
    15    26    27    1
    16    27    28    1
    17    28    29    1
    18    29    30    1
    19     5     6   ar
    20     6     7   ar
    21     7     8   ar
    22     8     9   ar
    23     9    10   ar
    24    15    16   ar
    25    16    17    1
    26    16    18   ar
    27    18    19   ar
    28    19    20   ar
    29    20    11   ar
    30    20    14   ar
    31    10     1   ar
    32     9     4   ar
    33    29    24    1
    34    22    23    1
@<TRIPOS>MOLECULE
*****
 30 34 0 0 0
SMALL
GASTEIGER

@<TRIPOS>ATOM
      1 C          63.7475   89.1459   13.7590 C.ar    1  UNL1        0.0028
      2 C          64.3020   87.7608   13.9136 C.ar    1  UNL1        0.0002
      3 C          63.8043   86.6513   13.0354 C.ar    1  UNL1        0.0029
      4 C          62.7522   86.9270   12.0024 C.ar    1  UNL1        0.0349
      5 C          62.2546   85.8174   11.1240 C.ar    1  UNL1        0.1535
      6 N          61.2025   86.0931   10.0911 N.ar    1  UNL1       -0.1329
      7 N          60.6480   87.4783    9.9364 N.ar    1  UNL1       -0.1452
      8 C          61.1456   88.5877   10.8147 C.ar    1  UNL1        0.1222
      9 C          62.1977   88.3121   11.8477 C.ar    1  UNL1        0.0237
     10 C          62.6954   89.4215   12.7260 C.ar    1  UNL1        0.0018
     11 C          66.9286   92.9895   14.2972 C.ar    1  UNL1        0.1705
     12 N          67.1029   92.3271   12.9628 N.ar    1  UNL1       -0.0621
     13 O          66.1235   91.1943   12.8762 O.2     1  UNL1       -0.3522
     14 C          65.3439   91.1566   14.1571 C.ar    1  UNL1        0.1777
     15 C          64.2451   90.2554   14.6373 C.ar    1  UNL1        0.0333
     16 C          63.6440   90.4637   15.9957 C.ar    1  UNL1       -0.0188
     17 C          62.5452   89.5624   16.4758 C.3     1  UNL1        0.0311
     18 C          64.1416   91.5732   16.8740 C.ar    1  UNL1       -0.0040
     19 C          65.2404   92.4744   16.3938 C.ar    1  UNL1        0.0057
     20 C          65.8415   92.2661   15.0354 C.ar    1  UNL1        0.0717
     21 C          68.8151   93.9661   15.7931 C.3     1  UNL1        0.1097
     22 N          67.7052   94.1683   14.8045 N.pl3   1  UNL1       -0.3140
     23 H          67.4864   95.0747   14.4886 H       1  UNL1        0.1483
     24 N          62.8091   84.4323   11.2787 N.pl3   1  UNL1       -0.2884
     25 C          63.5564   83.7928   10.1462 C.3     1  UNL1        0.1242
     26 C          64.1109   82.4076   10.3010 C.3     1  UNL1        0.1636
     27 O          63.9181   81.6620   11.5882 O.3     1  UNL1       -0.3502
     28 C          63.1708   82.3016   12.7206 C.3     1  UNL1        0.1618
     29 C          62.6163   83.6867   12.5660 C.3     1  UNL1        0.1039
     30 C          61.8689   84.3262   13.6984 C.3     1  UNL1        0.0241
@<TRIPOS>BOND
     1    21    22    1
     2    22    11    1
     3    11    12   ar
     4    12    13   ar
     5    13    14   ar
     6    14    15   ar
     7    15     1    1
     8     1     2   ar
     9     2     3   ar
    10     3     4   ar
    11     4     5   ar
    12     5    24    1
    13    24    25    1
    14    25    26    1
    15    26    27    1
    16    27    28    1
    17    28    29    1
    18    29    30    1
    19     5     6   ar
    20     6     7   ar
    21     7     8   ar
    22     8     9   ar
    23     9    10   ar
    24    15    16   ar
    25    16    17    1
    26    16    18   ar
    27    18    19   ar
    28    19    20   ar
    29    20    11   ar
    30    20    14   ar
    31    10     1   ar
    32     9     4   ar
    33    29    24    1
    34    22    23    1
