@<TRIPOS>MOLECULE
*****
 29 32 0 0 0
SMALL
GASTEIGER

@<TRIPOS>ATOM
      1 N          59.7624   88.4835   10.6609 N.pl3   1  UNL1       -0.3039
      2 H          58.8129   88.3089   10.8540 H       1  UNL1        0.1496
      3 C          60.3291   87.4692    7.8951 C.3     1  UNL1        0.1363
      4 N          60.9935   86.8308    9.0788 N.ar    1  UNL1       -0.2669
      5 C          60.7102   87.3379   10.4617 C.ar    1  UNL1        0.2002
      6 N          61.3745   86.6996   11.6454 N.ar    1  UNL1       -0.2150
      7 C          62.3223   85.5541   11.4462 C.ar    1  UNL1        0.0895
      8 C          62.9866   84.9158   12.6298 C.ar    1  UNL1        0.0307
      9 C          63.9343   83.7703   12.4306 C.ar    1  UNL1        0.0592
     10 CL         64.5988   83.1320   13.6143 Cl      1  UNL1       -0.0822
     11 C          64.2177   83.2632   11.0476 C.ar    1  UNL1        0.0116
     12 C          63.5533   83.9015    9.8639 C.ar    1  UNL1        0.0071
     13 C          62.6056   85.0470   10.0632 C.ar    1  UNL1        0.0740
     14 C          61.9412   85.6853    8.8795 C.ar    1  UNL1        0.2643
     15 O          62.2246   85.1782    7.4966 O.2     1  UNL1       -0.2668
     16 C          60.2613   89.8948   10.5660 C.3     1  UNL1        0.0942
     17 C          61.6508   90.1674   10.0713 C.3     1  UNL1        0.0476
     18 C          62.7184   90.5980   11.0331 C.ar    1  UNL1       -0.0205
     19 C          63.7598   91.5884   10.6034 C.ar    1  UNL1       -0.0041
     20 C          64.8273   92.0190   11.5651 C.ar    1  UNL1        0.0027
     21 C          64.8535   91.4591   12.9565 C.ar    1  UNL1        0.0358
     22 C          63.8121   90.4687   13.3861 C.ar    1  UNL1        0.0027
     23 C          62.7446   90.0381   12.4244 C.ar    1  UNL1       -0.0041
     24 C          65.9211   91.8897   13.9183 C.ar    1  UNL1        0.1623
     25 N          67.3595   91.8858   13.4930 N.ar    1  UNL1       -0.2250
     26 C          68.4271   92.3163   14.4547 C.ar    1  UNL1        0.1022
     27 C          68.0562   92.7508   15.8418 C.ar    1  UNL1        0.0414
     28 C          66.6178   92.7547   16.2670 C.ar    1  UNL1        0.1022
     29 N          65.5502   92.3241   15.3052 N.ar    1  UNL1       -0.2250
@<TRIPOS>BOND
     1     3     4    1
     2     4     5   ar
     3     5     1    1
     4     1    16    1
     5    16    17    1
     6    17    18    1
     7    18    19   ar
     8    19    20   ar
     9    20    21   ar
    10    21    24    1
    11    24    25   ar
    12    25    26   ar
    13    26    27   ar
    14    27    28   ar
    15    28    29   ar
    16    21    22   ar
    17    22    23   ar
    18     5     6   ar
    19     6     7   ar
    20     7     8   ar
    21     8     9   ar
    22     9    10    1
    23     9    11   ar
    24    11    12   ar
    25    12    13   ar
    26    13    14   ar
    27    14    15    2
    28    14     4   ar
    29    23    18   ar
    30    13     7   ar
    31    29    24   ar
    32     1     2    1
@<TRIPOS>MOLECULE
*****
 29 32 0 0 0
SMALL
GASTEIGER

@<TRIPOS>ATOM
      1 N          62.6728   83.6988   15.1316 N.pl3   1  UNL1       -0.3039
      2 H          63.0246   82.8652   15.5197 H       1  UNL1        0.1496
      3 C          64.3338   81.8683   13.4316 C.3     1  UNL1        0.1363
      4 N          63.6289   83.0366   12.8084 N.ar    1  UNL1       -0.2669
      5 C          62.7984   83.9518   13.6584 C.ar    1  UNL1        0.2002
      6 N          62.0936   85.1201   13.0353 N.ar    1  UNL1       -0.2150
      7 C          62.2192   85.3732   11.5621 C.ar    1  UNL1        0.0895
      8 C          61.5144   86.5414   10.9390 C.ar    1  UNL1        0.0307
      9 C          61.6400   86.7945    9.4659 C.ar    1  UNL1        0.0592
     10 CL         60.9352   87.9628    8.8428 Cl      1  UNL1       -0.0822
     11 C          62.4706   85.8792    8.6159 C.ar    1  UNL1        0.0116
     12 C          63.1754   84.7110    9.2390 C.ar    1  UNL1        0.0071
     13 C          63.0497   84.4579   10.7121 C.ar    1  UNL1        0.0740
     14 C          63.7546   83.2896   11.3353 C.ar    1  UNL1        0.2643
     15 O          64.5852   82.3744   10.4853 O.2     1  UNL1       -0.2668
     16 C          62.0110   84.7157   16.0136 C.3     1  UNL1        0.0942
     17 C          62.8459   85.6536   16.8341 C.3     1  UNL1        0.0476
     18 C          63.3620   86.9247   16.2273 C.ar    1  UNL1       -0.0205
     19 C          64.2370   86.8734   15.0101 C.ar    1  UNL1       -0.0041
     20 C          64.7530   88.1444   14.4033 C.ar    1  UNL1        0.0027
     21 C          64.3940   89.4667   15.0138 C.ar    1  UNL1        0.0358
     22 C          63.5191   89.5179   16.2311 C.ar    1  UNL1        0.0027
     23 C          63.0030   88.2469   16.8379 C.ar    1  UNL1       -0.0041
     24 C          64.9101   90.7378   14.4070 C.ar    1  UNL1        0.1623
     25 N          65.7304   91.6839   15.2328 N.ar    1  UNL1       -0.2250
     26 C          66.2464   92.9550   14.6261 C.ar    1  UNL1        0.1022
     27 C          65.9422   93.2799   13.1936 C.ar    1  UNL1        0.0414
     28 C          65.1219   92.3337   12.3679 C.ar    1  UNL1        0.1022
     29 N          64.6058   91.0626   12.9746 N.ar    1  UNL1       -0.2250
@<TRIPOS>BOND
     1     3     4    1
     2     4     5   ar
     3     5     1    1
     4     1    16    1
     5    16    17    1
     6    17    18    1
     7    18    19   ar
     8    19    20   ar
     9    20    21   ar
    10    21    24    1
    11    24    25   ar
    12    25    26   ar
    13    26    27   ar
    14    27    28   ar
    15    28    29   ar
    16    21    22   ar
    17    22    23   ar
    18     5     6   ar
    19     6     7   ar
    20     7     8   ar
    21     8     9   ar
    22     9    10    1
    23     9    11   ar
    24    11    12   ar
    25    12    13   ar
    26    13    14   ar
    27    14    15    2
    28    14     4   ar
    29    23    18   ar
    30    13     7   ar
    31    29    24   ar
    32     1     2    1
@<TRIPOS>MOLECULE
*****
 29 32 0 0 0
SMALL
GASTEIGER

@<TRIPOS>ATOM
      1 N          64.3008   87.8692   14.5014 N.pl3   1  UNL1       -0.3039
      2 H          65.2637   87.6904   14.6017 H       1  UNL1        0.1496
      3 C          64.1606   84.9024   14.0788 C.3     1  UNL1        0.1363
      4 N          63.4831   85.8302   13.1142 N.ar    1  UNL1       -0.2669
      5 C          63.5532   87.3136   13.3255 C.ar    1  UNL1        0.2002
      6 N          62.8758   88.2414   12.3610 N.ar    1  UNL1       -0.2150
      7 C          62.1283   87.6858   11.1852 C.ar    1  UNL1        0.0895
      8 C          61.4509   88.6136   10.2207 C.ar    1  UNL1        0.0307
      9 C          60.7034   88.0580    9.0449 C.ar    1  UNL1        0.0592
     10 CL         60.0259   88.9858    8.0803 Cl      1  UNL1       -0.0822
     11 C          60.6333   86.5746    8.8336 C.ar    1  UNL1        0.0116
     12 C          61.3107   85.6468    9.7981 C.ar    1  UNL1        0.0071
     13 C          62.0582   86.2024   10.9739 C.ar    1  UNL1        0.0740
     14 C          62.7356   85.2746   11.9385 C.ar    1  UNL1        0.2643
     15 O          62.6655   83.7912   11.7272 O.2     1  UNL1       -0.2668
     16 C          63.5812   88.6972   15.5244 C.3     1  UNL1        0.0942
     17 C          63.8949   90.1575   15.6627 C.3     1  UNL1        0.0476
     18 C          64.5911   90.8838   14.5500 C.ar    1  UNL1       -0.0205
     19 C          63.8513   91.2036   13.2849 C.ar    1  UNL1       -0.0041
     20 C          64.5474   91.9299   12.1722 C.ar    1  UNL1        0.0027
     21 C          65.9832   92.3362   12.3247 C.ar    1  UNL1        0.0358
     22 C          66.7229   92.0163   13.5898 C.ar    1  UNL1        0.0027
     23 C          66.0269   91.2901   14.7024 C.ar    1  UNL1       -0.0041
     24 C          66.6793   93.0625   11.2120 C.ar    1  UNL1        0.1623
     25 N          66.3209   94.4866   10.9062 N.ar    1  UNL1       -0.2250
     26 C          67.0169   95.2129    9.7936 C.ar    1  UNL1        0.1022
     27 C          68.0715   94.5151    8.9867 C.ar    1  UNL1        0.0414
     28 C          68.4299   93.0910    9.2925 C.ar    1  UNL1        0.1022
     29 N          67.7338   92.3647   10.4051 N.ar    1  UNL1       -0.2250
@<TRIPOS>BOND
     1     3     4    1
     2     4     5   ar
     3     5     1    1
     4     1    16    1
     5    16    17    1
     6    17    18    1
     7    18    19   ar
     8    19    20   ar
     9    20    21   ar
    10    21    24    1
    11    24    25   ar
    12    25    26   ar
    13    26    27   ar
    14    27    28   ar
    15    28    29   ar
    16    21    22   ar
    17    22    23   ar
    18     5     6   ar
    19     6     7   ar
    20     7     8   ar
    21     8     9   ar
    22     9    10    1
    23     9    11   ar
    24    11    12   ar
    25    12    13   ar
    26    13    14   ar
    27    14    15    2
    28    14     4   ar
    29    23    18   ar
    30    13     7   ar
    31    29    24   ar
    32     1     2    1
@<TRIPOS>MOLECULE
*****
 29 32 0 0 0
SMALL
GASTEIGER

@<TRIPOS>ATOM
      1 N          61.6100   87.1475    9.3731 N.pl3   1  UNL1       -0.3039
      2 H          61.6017   87.0761    8.3912 H       1  UNL1        0.1496
      3 C          63.1922   84.9683    8.0510 C.3     1  UNL1        0.1363
      4 N          63.0010   84.9594    9.5388 N.ar    1  UNL1       -0.2669
      5 C          62.2099   86.0490   10.1998 C.ar    1  UNL1        0.2002
      6 N          62.0187   86.0401   11.6875 N.ar    1  UNL1       -0.2150
      7 C          62.6186   84.9416   12.5143 C.ar    1  UNL1        0.0895
      8 C          62.4274   84.9327   14.0020 C.ar    1  UNL1        0.0307
      9 C          63.0273   83.8342   14.8287 C.ar    1  UNL1        0.0592
     10 CL         62.8361   83.8253   16.3164 Cl      1  UNL1       -0.0822
     11 C          63.8184   82.7446   14.1676 C.ar    1  UNL1        0.0116
     12 C          64.0096   82.7535   12.6799 C.ar    1  UNL1        0.0071
     13 C          63.4097   83.8520   11.8532 C.ar    1  UNL1        0.0740
     14 C          63.6009   83.8609   10.3654 C.ar    1  UNL1        0.2643
     15 O          64.3920   82.7713    9.7044 O.2     1  UNL1       -0.2668
     16 C          61.0227   88.3546   10.0423 C.3     1  UNL1        0.0942
     17 C          61.6597   89.6997    9.8559 C.3     1  UNL1        0.0476
     18 C          62.6538   90.2044   10.8596 C.ar    1  UNL1       -0.0205
     19 C          63.5393   91.3663   10.5192 C.ar    1  UNL1       -0.0041
     20 C          64.5333   91.8710   11.5228 C.ar    1  UNL1        0.0027
     21 C          64.6418   91.2137   12.8667 C.ar    1  UNL1        0.0358
     22 C          63.7564   90.0518   13.2071 C.ar    1  UNL1        0.0027
     23 C          62.7623   89.5471   12.2035 C.ar    1  UNL1       -0.0041
     24 C          65.6359   91.7184   13.8703 C.ar    1  UNL1        0.1623
     25 N          67.0891   91.8041   13.5087 N.ar    1  UNL1       -0.2250
     26 C          68.0832   92.3088   14.5123 C.ar    1  UNL1        0.1022
     27 C          67.6240   92.7277   15.8775 C.ar    1  UNL1        0.0414
     28 C          66.1708   92.6420   16.2391 C.ar    1  UNL1        0.1022
     29 N          65.1767   92.1373   15.2355 N.ar    1  UNL1       -0.2250
@<TRIPOS>BOND
     1     3     4    1
     2     4     5   ar
     3     5     1    1
     4     1    16    1
     5    16    17    1
     6    17    18    1
     7    18    19   ar
     8    19    20   ar
     9    20    21   ar
    10    21    24    1
    11    24    25   ar
    12    25    26   ar
    13    26    27   ar
    14    27    28   ar
    15    28    29   ar
    16    21    22   ar
    17    22    23   ar
    18     5     6   ar
    19     6     7   ar
    20     7     8   ar
    21     8     9   ar
    22     9    10    1
    23     9    11   ar
    24    11    12   ar
    25    12    13   ar
    26    13    14   ar
    27    14    15    2
    28    14     4   ar
    29    23    18   ar
    30    13     7   ar
    31    29    24   ar
    32     1     2    1
@<TRIPOS>MOLECULE
*****
 29 32 0 0 0
SMALL
GASTEIGER

@<TRIPOS>ATOM
      1 N          63.4937   89.9985   16.4507 N.pl3   1  UNL1       -0.3039
      2 H          64.0233   90.5240   17.0930 H       1  UNL1        0.1496
      3 C          65.6022   91.8529   15.3947 C.3     1  UNL1        0.1363
      4 N          64.5797   91.2718   14.4635 N.ar    1  UNL1       -0.2669
      5 C          63.5255   90.3446   14.9915 C.ar    1  UNL1        0.2002
      6 N          62.5031   89.7636   14.0604 N.ar    1  UNL1       -0.2150
      7 C          62.5349   90.1097   12.6012 C.ar    1  UNL1        0.0895
      8 C          61.5125   89.5287   11.6701 C.ar    1  UNL1        0.0307
      9 C          61.5443   89.8748   10.2110 C.ar    1  UNL1        0.0592
     10 CL         60.5218   89.2938    9.2798 Cl      1  UNL1       -0.0822
     11 C          62.5986   90.8020    9.6829 C.ar    1  UNL1        0.0116
     12 C          63.6210   91.3831   10.6140 C.ar    1  UNL1        0.0071
     13 C          63.5891   91.0369   12.0732 C.ar    1  UNL1        0.0740
     14 C          64.6116   91.6180   13.0043 C.ar    1  UNL1        0.2643
     15 O          65.6658   92.5452   12.4763 O.2     1  UNL1       -0.2668
     16 C          62.6549   88.8516   16.9314 C.3     1  UNL1        0.0942
     17 C          63.2971   87.5332   17.2465 C.3     1  UNL1        0.0476
     18 C          63.2863   86.4313   16.2287 C.ar    1  UNL1       -0.0205
     19 C          64.2551   86.4583   15.0839 C.ar    1  UNL1       -0.0041
     20 C          64.2443   85.3565   14.0661 C.ar    1  UNL1        0.0027
     21 C          63.2647   84.2277   14.1932 C.ar    1  UNL1        0.0358
     22 C          62.2959   84.2007   15.3380 C.ar    1  UNL1        0.0027
     23 C          62.3067   85.3025   16.3558 C.ar    1  UNL1       -0.0041
     24 C          63.2539   83.1258   13.1754 C.ar    1  UNL1        0.1623
     25 N          62.7617   81.7603   13.5536 N.ar    1  UNL1       -0.2250
     26 C          62.7509   80.6585   12.5359 C.ar    1  UNL1        0.1022
     27 C          63.2323   80.9221   11.1399 C.ar    1  UNL1        0.0414
     28 C          63.7246   82.2876   10.7617 C.ar    1  UNL1        0.1022
     29 N          63.7354   83.3895   11.7795 N.ar    1  UNL1       -0.2250
@<TRIPOS>BOND
     1     3     4    1
     2     4     5   ar
     3     5     1    1
     4     1    16    1
     5    16    17    1
     6    17    18    1
     7    18    19   ar
     8    19    20   ar
     9    20    21   ar
    10    21    24    1
    11    24    25   ar
    12    25    26   ar
    13    26    27   ar
    14    27    28   ar
    15    28    29   ar
    16    21    22   ar
    17    22    23   ar
    18     5     6   ar
    19     6     7   ar
    20     7     8   ar
    21     8     9   ar
    22     9    10    1
    23     9    11   ar
    24    11    12   ar
    25    12    13   ar
    26    13    14   ar
    27    14    15    2
    28    14     4   ar
    29    23    18   ar
    30    13     7   ar
    31    29    24   ar
    32     1     2    1
@<TRIPOS>MOLECULE
*****
 29 32 0 0 0
SMALL
GASTEIGER

@<TRIPOS>ATOM
      1 N          64.6897   87.4432   14.6533 N.pl3   1  UNL1       -0.3039
      2 H          65.5248   87.5551   15.1625 H       1  UNL1        0.1496
      3 C          63.2106   86.2084   16.9528 C.3     1  UNL1        0.1363
      4 N          63.3378   85.4643   15.6565 N.ar    1  UNL1       -0.2669
      5 C          64.0773   86.0817   14.5068 C.ar    1  UNL1        0.2002
      6 N          64.2045   85.3377   13.2106 N.ar    1  UNL1       -0.2150
      7 C          63.5921   83.9762   13.0641 C.ar    1  UNL1        0.0895
      8 C          63.7192   83.2321   11.7679 C.ar    1  UNL1        0.0307
      9 C          63.1069   81.8707   11.6214 C.ar    1  UNL1        0.0592
     10 CL         63.2340   81.1266   10.3252 Cl      1  UNL1       -0.0822
     11 C          62.3673   81.2533   12.7712 C.ar    1  UNL1        0.0116
     12 C          62.2402   81.9974   14.0674 C.ar    1  UNL1        0.0071
     13 C          62.8525   83.3588   14.2138 C.ar    1  UNL1        0.0740
     14 C          62.7254   84.1029   15.5101 C.ar    1  UNL1        0.2643
     15 O          61.9859   83.4855   16.6598 O.2     1  UNL1       -0.2668
     16 C          64.0297   88.6341   14.0240 C.3     1  UNL1        0.0942
     17 C          64.3093   90.0111   14.5491 C.3     1  UNL1        0.0476
     18 C          64.8170   91.0776   13.6244 C.ar    1  UNL1       -0.0205
     19 C          65.9258   91.9867   14.0652 C.ar    1  UNL1       -0.0041
     20 C          66.4336   93.0531   13.1407 C.ar    1  UNL1        0.0027
     21 C          65.8326   93.2105   11.7754 C.ar    1  UNL1        0.0358
     22 C          64.7238   92.3014   11.3347 C.ar    1  UNL1        0.0027
     23 C          64.2161   91.2350   12.2592 C.ar    1  UNL1       -0.0041
     24 C          66.3404   94.2770   10.8508 C.ar    1  UNL1        0.1623
     25 N          66.2390   95.7210   11.2440 N.ar    1  UNL1       -0.2250
     26 C          66.7467   96.7875   10.3194 C.ar    1  UNL1        0.1022
     27 C          67.3559   96.4100    9.0016 C.ar    1  UNL1        0.0414
     28 C          67.4573   94.9660    8.6085 C.ar    1  UNL1        0.1022
     29 N          66.9495   93.8995    9.5331 N.ar    1  UNL1       -0.2250
@<TRIPOS>BOND
     1     3     4    1
     2     4     5   ar
     3     5     1    1
     4     1    16    1
     5    16    17    1
     6    17    18    1
     7    18    19   ar
     8    19    20   ar
     9    20    21   ar
    10    21    24    1
    11    24    25   ar
    12    25    26   ar
    13    26    27   ar
    14    27    28   ar
    15    28    29   ar
    16    21    22   ar
    17    22    23   ar
    18     5     6   ar
    19     6     7   ar
    20     7     8   ar
    21     8     9   ar
    22     9    10    1
    23     9    11   ar
    24    11    12   ar
    25    12    13   ar
    26    13    14   ar
    27    14    15    2
    28    14     4   ar
    29    23    18   ar
    30    13     7   ar
    31    29    24   ar
    32     1     2    1
@<TRIPOS>MOLECULE
*****
 29 32 0 0 0
SMALL
GASTEIGER

@<TRIPOS>ATOM
      1 N          62.3087   89.4873   15.4298 N.pl3   1  UNL1       -0.3039
      2 H          61.4904   89.2601   14.9318 H       1  UNL1        0.1496
      3 C          62.3029   89.9031   12.4588 C.3     1  UNL1        0.1363
      4 N          63.3610   90.5479   13.3042 N.ar    1  UNL1       -0.2669
      5 C          63.3639   90.3400   14.7898 C.ar    1  UNL1        0.2002
      6 N          64.4219   90.9848   15.6352 N.ar    1  UNL1       -0.2150
      7 C          65.4771   91.8374   14.9952 C.ar    1  UNL1        0.0895
      8 C          66.5351   92.4822   15.8406 C.ar    1  UNL1        0.0307
      9 C          67.5902   93.3348   15.2006 C.ar    1  UNL1        0.0592
     10 CL         68.6483   93.9796   16.0460 Cl      1  UNL1       -0.0822
     11 C          67.5873   93.5427   13.7150 C.ar    1  UNL1        0.0116
     12 C          66.5293   92.8979   12.8696 C.ar    1  UNL1        0.0071
     13 C          65.4742   92.0453   13.5096 C.ar    1  UNL1        0.0740
     14 C          64.4161   91.4005   12.6642 C.ar    1  UNL1        0.2643
     15 O          64.4132   91.6084   11.1787 O.2     1  UNL1       -0.2668
     16 C          62.5002   88.9810   16.8287 C.3     1  UNL1        0.0942
     17 C          63.4178   87.8231   17.0881 C.3     1  UNL1        0.0476
     18 C          63.3099   86.5796   16.2560 C.ar    1  UNL1       -0.0205
     19 C          62.2945   85.5313   16.6022 C.ar    1  UNL1       -0.0041
     20 C          62.1866   84.2879   15.7703 C.ar    1  UNL1        0.0027
     21 C          63.0941   84.0928   14.5920 C.ar    1  UNL1        0.0358
     22 C          64.1096   85.1411   14.2458 C.ar    1  UNL1        0.0027
     23 C          64.2175   86.3845   15.0778 C.ar    1  UNL1       -0.0041
     24 C          62.9863   82.8493   13.7600 C.ar    1  UNL1        0.1623
     25 N          63.2638   82.9062   12.2870 N.ar    1  UNL1       -0.2250
     26 C          63.1560   81.6628   11.4549 C.ar    1  UNL1        0.1022
     27 C          62.7705   80.3625   12.0959 C.ar    1  UNL1        0.0414
     28 C          62.4930   80.3056   13.5689 C.ar    1  UNL1        0.1022
     29 N          62.6009   81.5491   14.4009 N.ar    1  UNL1       -0.2250
@<TRIPOS>BOND
     1     3     4    1
     2     4     5   ar
     3     5     1    1
     4     1    16    1
     5    16    17    1
     6    17    18    1
     7    18    19   ar
     8    19    20   ar
     9    20    21   ar
    10    21    24    1
    11    24    25   ar
    12    25    26   ar
    13    26    27   ar
    14    27    28   ar
    15    28    29   ar
    16    21    22   ar
    17    22    23   ar
    18     5     6   ar
    19     6     7   ar
    20     7     8   ar
    21     8     9   ar
    22     9    10    1
    23     9    11   ar
    24    11    12   ar
    25    12    13   ar
    26    13    14   ar
    27    14    15    2
    28    14     4   ar
    29    23    18   ar
    30    13     7   ar
    31    29    24   ar
    32     1     2    1
@<TRIPOS>MOLECULE
*****
 29 32 0 0 0
SMALL
GASTEIGER

@<TRIPOS>ATOM
      1 N          65.1505   83.7815   13.8536 N.pl3   1  UNL1       -0.3039
      2 H          66.1224   83.6247   13.8583 H       1  UNL1        0.1496
      3 C          63.2353   83.3362   16.1194 C.3     1  UNL1        0.1363
      4 N          63.6187   84.7317   15.7247 N.ar    1  UNL1       -0.2669
      5 C          64.5763   84.9543   14.5918 C.ar    1  UNL1        0.2002
      6 N          64.9598   86.3497   14.1971 N.ar    1  UNL1       -0.2150
      7 C          64.3856   87.5225   14.9353 C.ar    1  UNL1        0.0895
      8 C          64.7690   88.9179   14.5406 C.ar    1  UNL1        0.0307
      9 C          64.1949   90.0906   15.2788 C.ar    1  UNL1        0.0592
     10 CL         64.5783   91.4861   14.8841 Cl      1  UNL1       -0.0822
     11 C          63.2373   89.8680   16.4117 C.ar    1  UNL1        0.0116
     12 C          62.8538   88.4726   16.8064 C.ar    1  UNL1        0.0071
     13 C          63.4280   87.2999   16.0682 C.ar    1  UNL1        0.0740
     14 C          63.0446   85.9044   16.4629 C.ar    1  UNL1        0.2643
     15 O          62.0870   85.6818   17.5958 O.2     1  UNL1       -0.2668
     16 C          64.2438   82.8475   13.1082 C.3     1  UNL1        0.0942
     17 C          64.1869   82.8940   11.6101 C.3     1  UNL1        0.0476
     18 C          63.3657   83.9446   10.9229 C.ar    1  UNL1       -0.0205
     19 C          62.3961   84.7736   11.7119 C.ar    1  UNL1       -0.0041
     20 C          61.5750   85.8241   11.0249 C.ar    1  UNL1        0.0027
     21 C          61.7235   86.0456    9.5488 C.ar    1  UNL1        0.0358
     22 C          62.6931   85.2166    8.7598 C.ar    1  UNL1        0.0027
     23 C          63.5142   84.1661    9.4468 C.ar    1  UNL1       -0.0041
     24 C          60.9023   87.0962    8.8617 C.ar    1  UNL1        0.1623
     25 N          59.9346   86.7059    7.7841 N.ar    1  UNL1       -0.2250
     26 C          59.1135   87.7564    7.0970 C.ar    1  UNL1        0.1022
     27 C          59.2601   89.1973    7.4874 C.ar    1  UNL1        0.0414
     28 C          60.2278   89.5876    8.5649 C.ar    1  UNL1        0.1022
     29 N          61.0490   88.5370    9.2521 N.ar    1  UNL1       -0.2250
@<TRIPOS>BOND
     1     3     4    1
     2     4     5   ar
     3     5     1    1
     4     1    16    1
     5    16    17    1
     6    17    18    1
     7    18    19   ar
     8    19    20   ar
     9    20    21   ar
    10    21    24    1
    11    24    25   ar
    12    25    26   ar
    13    26    27   ar
    14    27    28   ar
    15    28    29   ar
    16    21    22   ar
    17    22    23   ar
    18     5     6   ar
    19     6     7   ar
    20     7     8   ar
    21     8     9   ar
    22     9    10    1
    23     9    11   ar
    24    11    12   ar
    25    12    13   ar
    26    13    14   ar
    27    14    15    2
    28    14     4   ar
    29    23    18   ar
    30    13     7   ar
    31    29    24   ar
    32     1     2    1
