@<TRIPOS>MOLECULE
*****
 23 25 0 0 0
SMALL
GASTEIGER

@<TRIPOS>ATOM
      1 C          64.6390   90.2474   14.3205 C.ar    1  UNL1       -0.0000
      2 C          63.9901   90.6105   13.0178 C.ar    1  UNL1       -0.0002
      3 C          64.4907   91.7864   12.2326 C.ar    1  UNL1       -0.0016
      4 C          65.6402   92.5993   12.7501 C.ar    1  UNL1        0.0084
      5 C          66.2891   92.2362   14.0528 C.ar    1  UNL1       -0.0016
      6 C          65.7885   91.0603   14.8380 C.ar    1  UNL1       -0.0002
      7 O          62.6366   85.5435   17.4612 O.3     1  UNL1       -0.5055
      8 C          63.1372   86.7195   16.6760 C.ar    1  UNL1        0.1337
      9 C          62.8332   88.1139   17.1378 C.ar    1  UNL1        0.0366
     10 C          63.3338   89.2898   16.3526 C.ar    1  UNL1        0.0031
     11 C          64.1384   89.0714   15.1057 C.ar    1  UNL1        0.0002
     12 C          64.4424   87.6771   14.6439 C.ar    1  UNL1        0.0031
     13 C          63.9418   86.5011   15.4291 C.ar    1  UNL1        0.0366
     14 H          62.1340   85.6800   18.2401 H       1  UNL1        0.2922
     15 C          66.1408   93.7753   11.9649 C.3     1  UNL1        0.1551
     16 O          65.8883   95.1690   12.4586 O.3     1  UNL1       -0.3756
     17 H          66.2752   95.8067   11.8384 H       1  UNL1        0.2112
     18 C          66.8938   93.5575   10.6861 C.ar    1  UNL1        0.0115
     19 C          67.6790   92.2955   10.4836 C.ar    1  UNL1        0.0191
     20 C          68.4320   92.0777    9.2048 C.ar    1  UNL1        0.0986
     21 N          68.4000   93.1219    8.1284 N.ar    1  UNL1       -0.2423
     22 C          67.6149   94.3839    8.3308 C.ar    1  UNL1        0.0986
     23 C          66.8618   94.6017    9.6097 C.ar    1  UNL1        0.0191
@<TRIPOS>BOND
     1     7     8    1
     2     8     9   ar
     3     9    10   ar
     4    10    11   ar
     5    11     1    1
     6     1     2   ar
     7     2     3   ar
     8     3     4   ar
     9     4    15    1
    10    15    16    1
    11    15    18    1
    12    18    19   ar
    13    19    20   ar
    14    20    21   ar
    15    21    22   ar
    16    22    23   ar
    17     4     5   ar
    18     5     6   ar
    19    11    12   ar
    20    12    13   ar
    21    13     8   ar
    22     6     1   ar
    23    23    18   ar
    24     7    14    1
    25    16    17    1
@<TRIPOS>MOLECULE
*****
 23 25 0 0 0
SMALL
GASTEIGER

@<TRIPOS>ATOM
      1 C          62.4272   87.7091   10.3145 C.ar    1  UNL1       -0.0000
      2 C          62.3938   89.1952   10.1144 C.ar    1  UNL1       -0.0002
      3 C          62.8073   90.1115   11.2277 C.ar    1  UNL1       -0.0016
      4 C          63.2542   89.5415   12.5412 C.ar    1  UNL1        0.0084
      5 C          63.2877   88.0553   12.7414 C.ar    1  UNL1       -0.0016
      6 C          62.8742   87.1391   11.6280 C.ar    1  UNL1       -0.0002
      7 O          60.7732   84.0442    5.8611 O.3     1  UNL1       -0.5055
      8 C          61.1867   84.9604    6.9745 C.ar    1  UNL1        0.1337
      9 C          60.1929   85.9131    7.5700 C.ar    1  UNL1        0.0366
     10 C          60.6064   86.8293    8.6834 C.ar    1  UNL1        0.0031
     11 C          62.0137   86.7928    9.2012 C.ar    1  UNL1        0.0002
     12 C          63.0075   85.8402    8.6056 C.ar    1  UNL1        0.0031
     13 C          62.5940   84.9239    7.4922 C.ar    1  UNL1        0.0366
     14 H          59.8941   84.0670    5.5377 H       1  UNL1        0.2922
     15 C          63.6677   90.4577   13.6546 C.3     1  UNL1        0.1551
     16 O          62.8189   90.5724   14.8859 O.3     1  UNL1       -0.3756
     17 H          63.2259   91.2018   15.5017 H       1  UNL1        0.2112
     18 C          64.9301   91.2592   13.5366 C.ar    1  UNL1        0.0115
     19 C          65.1105   92.2100   12.3904 C.ar    1  UNL1        0.0191
     20 C          66.3729   93.0115   12.2724 C.ar    1  UNL1        0.0986
     21 N          67.4548   92.8624   13.3005 N.ar    1  UNL1       -0.2423
     22 C          67.2745   91.9117   14.4467 C.ar    1  UNL1        0.0986
     23 C          66.0121   91.1101   14.5647 C.ar    1  UNL1        0.0191
@<TRIPOS>BOND
     1     7     8    1
     2     8     9   ar
     3     9    10   ar
     4    10    11   ar
     5    11     1    1
     6     1     2   ar
     7     2     3   ar
     8     3     4   ar
     9     4    15    1
    10    15    16    1
    11    15    18    1
    12    18    19   ar
    13    19    20   ar
    14    20    21   ar
    15    21    22   ar
    16    22    23   ar
    17     4     5   ar
    18     5     6   ar
    19    11    12   ar
    20    12    13   ar
    21    13     8   ar
    22     6     1   ar
    23    23    18   ar
    24     7    14    1
    25    16    17    1
@<TRIPOS>MOLECULE
*****
 23 25 0 0 0
SMALL
GASTEIGER

@<TRIPOS>ATOM
      1 C          65.6038   92.4530   12.6001 C.ar    1  UNL1       -0.0000
      2 C          64.3790   91.6387   12.3057 C.ar    1  UNL1       -0.0002
      3 C          63.7320   90.8364   13.3955 C.ar    1  UNL1       -0.0016
      4 C          64.3098   90.8483   14.7797 C.ar    1  UNL1        0.0084
      5 C          65.5345   91.6626   15.0741 C.ar    1  UNL1       -0.0016
      6 C          66.1815   92.4650   13.9843 C.ar    1  UNL1       -0.0002
      7 O          68.1918   95.6625    8.2411 O.3     1  UNL1       -0.5055
      8 C          67.5448   94.8601    9.3308 C.ar    1  UNL1        0.1337
      9 C          67.7263   93.3719    9.3752 C.ar    1  UNL1        0.0366
     10 C          67.0793   92.5695   10.4649 C.ar    1  UNL1        0.0031
     11 C          66.2508   93.2554   11.5104 C.ar    1  UNL1        0.0002
     12 C          66.0692   94.7437   11.4660 C.ar    1  UNL1        0.0031
     13 C          66.7162   95.5461   10.3763 C.ar    1  UNL1        0.0366
     14 H          68.7094   95.2340    7.5880 H       1  UNL1        0.2922
     15 C          63.6627   90.0459   15.8694 C.3     1  UNL1        0.1551
     16 O          62.9622   90.7421   16.9984 O.3     1  UNL1       -0.3756
     17 H          62.6023   90.0822   17.6115 H       1  UNL1        0.2112
     18 C          63.7163   88.5474   15.8302 C.ar    1  UNL1        0.0115
     19 C          63.0822   87.7453   16.9278 C.ar    1  UNL1        0.0191
     20 C          63.1357   86.2468   16.8886 C.ar    1  UNL1        0.0986
     21 N          63.8232   85.5504   15.7518 N.ar    1  UNL1       -0.2423
     22 C          64.4572   86.3524   14.6543 C.ar    1  UNL1        0.0986
     23 C          64.4038   87.8510   14.6934 C.ar    1  UNL1        0.0191
@<TRIPOS>BOND
     1     7     8    1
     2     8     9   ar
     3     9    10   ar
     4    10    11   ar
     5    11     1    1
     6     1     2   ar
     7     2     3   ar
     8     3     4   ar
     9     4    15    1
    10    15    16    1
    11    15    18    1
    12    18    19   ar
    13    19    20   ar
    14    20    21   ar
    15    21    22   ar
    16    22    23   ar
    17     4     5   ar
    18     5     6   ar
    19    11    12   ar
    20    12    13   ar
    21    13     8   ar
    22     6     1   ar
    23    23    18   ar
    24     7    14    1
    25    16    17    1
@<TRIPOS>MOLECULE
*****
 23 25 0 0 0
SMALL
GASTEIGER

@<TRIPOS>ATOM
      1 C          63.5544   86.1306   13.3463 C.ar    1  UNL1       -0.0000
      2 C          64.2172   86.5673   14.6190 C.ar    1  UNL1       -0.0002
      3 C          64.4113   88.0278   14.9006 C.ar    1  UNL1       -0.0016
      4 C          63.9427   89.0515   13.9095 C.ar    1  UNL1        0.0084
      5 C          63.2799   88.6147   12.6368 C.ar    1  UNL1       -0.0016
      6 C          63.0857   87.1543   12.3552 C.ar    1  UNL1       -0.0002
      7 O          62.7777   80.2886   12.2198 O.3     1  UNL1       -0.5055
      8 C          62.9719   81.7491   12.5014 C.ar    1  UNL1        0.1337
      9 C          63.1918   82.7084   11.3695 C.ar    1  UNL1        0.0366
     10 C          63.3860   84.1689   11.6511 C.ar    1  UNL1        0.0031
     11 C          63.3602   84.6701   13.0647 C.ar    1  UNL1        0.0002
     12 C          63.1402   83.7108   14.1966 C.ar    1  UNL1        0.0031
     13 C          62.9461   82.2503   13.9150 C.ar    1  UNL1        0.0366
     14 H          62.7938   79.9756   11.3368 H       1  UNL1        0.2922
     15 C          64.1369   90.5120   14.1912 C.3     1  UNL1        0.1551
     16 O          63.2271   91.2179   15.1523 O.3     1  UNL1       -0.3756
     17 H          63.4879   92.1497   15.2194 H       1  UNL1        0.2112
     18 C          65.2408   91.2665   13.5116 C.ar    1  UNL1        0.0115
     19 C          64.9870   91.9464   12.1988 C.ar    1  UNL1        0.0191
     20 C          66.0910   92.7010   11.5192 C.ar    1  UNL1        0.0986
     21 N          67.4487   92.7757   12.1524 N.ar    1  UNL1       -0.2423
     22 C          67.7026   92.0959   13.4651 C.ar    1  UNL1        0.0986
     23 C          66.5986   91.3413   14.1448 C.ar    1  UNL1        0.0191
@<TRIPOS>BOND
     1     7     8    1
     2     8     9   ar
     3     9    10   ar
     4    10    11   ar
     5    11     1    1
     6     1     2   ar
     7     2     3   ar
     8     3     4   ar
     9     4    15    1
    10    15    16    1
    11    15    18    1
    12    18    19   ar
    13    19    20   ar
    14    20    21   ar
    15    21    22   ar
    16    22    23   ar
    17     4     5   ar
    18     5     6   ar
    19    11    12   ar
    20    12    13   ar
    21    13     8   ar
    22     6     1   ar
    23    23    18   ar
    24     7    14    1
    25    16    17    1
@<TRIPOS>MOLECULE
*****
 23 25 0 0 0
SMALL
GASTEIGER

@<TRIPOS>ATOM
      1 C          62.8523   89.0281   11.9331 C.ar    1  UNL1       -0.0000
      2 C          63.5163   88.3457   13.0921 C.ar    1  UNL1       -0.0002
      3 C          64.2383   89.1571   14.1267 C.ar    1  UNL1       -0.0016
      4 C          64.2964   90.6507   14.0023 C.ar    1  UNL1        0.0084
      5 C          63.6324   91.3331   12.8432 C.ar    1  UNL1       -0.0016
      6 C          62.9104   90.5217   11.8086 C.ar    1  UNL1       -0.0002
      7 O          59.9642   85.7827    7.7946 O.3     1  UNL1       -0.5055
      8 C          60.6862   86.5941    8.8292 C.ar    1  UNL1        0.1337
      9 C          61.4975   85.9083    9.8882 C.ar    1  UNL1        0.0366
     10 C          62.2195   86.7196   10.9228 C.ar    1  UNL1        0.0031
     11 C          62.1303   88.2167   10.8984 C.ar    1  UNL1        0.0002
     12 C          61.3190   88.9025    9.8395 C.ar    1  UNL1        0.0031
     13 C          60.5970   88.0912    8.8049 C.ar    1  UNL1        0.0366
     14 H          60.0200   84.8475    7.8098 H       1  UNL1        0.2922
     15 C          65.0184   91.4620   15.0369 C.3     1  UNL1        0.1551
     16 O          64.3106   91.8776   16.2923 O.3     1  UNL1       -0.3756
     17 H          64.9155   92.3921   16.8494 H       1  UNL1        0.2112
     18 C          66.4483   91.8578   14.8160 C.ar    1  UNL1        0.0115
     19 C          67.2158   92.5383   15.9106 C.ar    1  UNL1        0.0191
     20 C          68.6456   92.9340   15.6897 C.ar    1  UNL1        0.0986
     21 N          69.3081   92.6493   14.3744 N.ar    1  UNL1       -0.2423
     22 C          68.5406   91.9689   13.2799 C.ar    1  UNL1        0.0986
     23 C          67.1107   91.5731   13.5007 C.ar    1  UNL1        0.0191
@<TRIPOS>BOND
     1     7     8    1
     2     8     9   ar
     3     9    10   ar
     4    10    11   ar
     5    11     1    1
     6     1     2   ar
     7     2     3   ar
     8     3     4   ar
     9     4    15    1
    10    15    16    1
    11    15    18    1
    12    18    19   ar
    13    19    20   ar
    14    20    21   ar
    15    21    22   ar
    16    22    23   ar
    17     4     5   ar
    18     5     6   ar
    19    11    12   ar
    20    12    13   ar
    21    13     8   ar
    22     6     1   ar
    23    23    18   ar
    24     7    14    1
    25    16    17    1
@<TRIPOS>MOLECULE
*****
 23 25 0 0 0
SMALL
GASTEIGER

@<TRIPOS>ATOM
      1 C          62.2281   89.6774   10.2229 C.ar    1  UNL1       -0.0000
      2 C          62.7246   89.3469   11.5992 C.ar    1  UNL1       -0.0002
      3 C          63.7138   90.2485   12.2763 C.ar    1  UNL1       -0.0016
      4 C          64.2064   91.4808   11.5772 C.ar    1  UNL1        0.0084
      5 C          63.7099   91.8114   10.2010 C.ar    1  UNL1       -0.0016
      6 C          62.7208   90.9097    9.5238 C.ar    1  UNL1       -0.0002
      7 O          58.2715   86.0707    7.5142 O.3     1  UNL1       -0.5055
      8 C          59.2606   86.9724    8.1914 C.ar    1  UNL1        0.1337
      9 C          60.3425   86.3881    9.0505 C.ar    1  UNL1        0.0366
     10 C          61.3317   87.2898    9.7276 C.ar    1  UNL1        0.0031
     11 C          61.2389   88.7758    9.5457 C.ar    1  UNL1        0.0002
     12 C          60.1571   89.3601    8.6867 C.ar    1  UNL1        0.0031
     13 C          59.1679   88.4584    8.0095 C.ar    1  UNL1        0.0366
     14 H          58.3294   85.1425    7.6279 H       1  UNL1        0.2922
     15 C          65.1956   92.3824   12.2544 C.3     1  UNL1        0.1551
     16 O          65.2575   92.4374   13.7521 O.3     1  UNL1       -0.3756
     17 H          65.9454   93.0647   14.0244 H       1  UNL1        0.2112
     18 C          66.1228   93.2291   11.4339 C.ar    1  UNL1        0.0115
     19 C          65.9707   94.7215   11.4308 C.ar    1  UNL1        0.0191
     20 C          66.8979   95.5682   10.6102 C.ar    1  UNL1        0.0986
     21 N          67.9773   94.9226    9.7928 N.ar    1  UNL1       -0.2423
     22 C          68.1295   93.4304    9.7959 C.ar    1  UNL1        0.0986
     23 C          67.2022   92.5836   10.6165 C.ar    1  UNL1        0.0191
@<TRIPOS>BOND
     1     7     8    1
     2     8     9   ar
     3     9    10   ar
     4    10    11   ar
     5    11     1    1
     6     1     2   ar
     7     2     3   ar
     8     3     4   ar
     9     4    15    1
    10    15    16    1
    11    15    18    1
    12    18    19   ar
    13    19    20   ar
    14    20    21   ar
    15    21    22   ar
    16    22    23   ar
    17     4     5   ar
    18     5     6   ar
    19    11    12   ar
    20    12    13   ar
    21    13     8   ar
    22     6     1   ar
    23    23    18   ar
    24     7    14    1
    25    16    17    1
@<TRIPOS>MOLECULE
*****
 23 25 0 0 0
SMALL
GASTEIGER

@<TRIPOS>ATOM
      1 C          64.4503   91.2183   12.7292 C.ar    1  UNL1       -0.0000
      2 C          63.3948   90.3244   13.3094 C.ar    1  UNL1       -0.0002
      3 C          62.2450   89.8716   12.4591 C.ar    1  UNL1       -0.0016
      4 C          62.1508   90.3127   11.0286 C.ar    1  UNL1        0.0084
      5 C          63.2063   91.2066   10.4483 C.ar    1  UNL1       -0.0016
      6 C          64.3561   91.6594   11.2986 C.ar    1  UNL1       -0.0002
      7 O          69.0494   93.0295   16.1303 O.3     1  UNL1       -0.5055
      8 C          67.8996   92.5767   15.2800 C.ar    1  UNL1        0.1337
      9 C          66.5467   92.3732   15.8948 C.ar    1  UNL1        0.0366
     10 C          65.3969   91.9204   15.0445 C.ar    1  UNL1        0.0031
     11 C          65.6001   91.6711   13.5795 C.ar    1  UNL1        0.0002
     12 C          66.9531   91.8745   12.9647 C.ar    1  UNL1        0.0031
     13 C          68.1029   92.3273   13.8150 C.ar    1  UNL1        0.0366
     14 H          68.9225   93.1852   17.0455 H       1  UNL1        0.2922
     15 C          61.0010   89.8599   10.1783 C.3     1  UNL1        0.1551
     16 O          59.7980   90.7405   10.0130 O.3     1  UNL1       -0.3756
     17 H          59.1527   90.3015    9.4370 H       1  UNL1        0.2112
     18 C          61.0542   88.5265    9.4933 C.ar    1  UNL1        0.0115
     19 C          59.9331   88.1011    8.5920 C.ar    1  UNL1        0.0191
     20 C          59.9864   86.7677    7.9070 C.ar    1  UNL1        0.0986
     21 N          61.1606   85.8598    8.1232 N.ar    1  UNL1       -0.2423
     22 C          62.2817   86.2852    9.0244 C.ar    1  UNL1        0.0986
     23 C          62.2285   87.6186    9.7095 C.ar    1  UNL1        0.0191
@<TRIPOS>BOND
     1     7     8    1
     2     8     9   ar
     3     9    10   ar
     4    10    11   ar
     5    11     1    1
     6     1     2   ar
     7     2     3   ar
     8     3     4   ar
     9     4    15    1
    10    15    16    1
    11    15    18    1
    12    18    19   ar
    13    19    20   ar
    14    20    21   ar
    15    21    22   ar
    16    22    23   ar
    17     4     5   ar
    18     5     6   ar
    19    11    12   ar
    20    12    13   ar
    21    13     8   ar
    22     6     1   ar
    23    23    18   ar
    24     7    14    1
    25    16    17    1
@<TRIPOS>MOLECULE
*****
 23 25 0 0 0
SMALL
GASTEIGER

@<TRIPOS>ATOM
      1 C          63.7979   90.4179   12.3081 C.ar    1  UNL1       -0.0000
      2 C          63.5354   89.0311   12.8158 C.ar    1  UNL1       -0.0002
      3 C          62.5433   88.1512   12.1149 C.ar    1  UNL1       -0.0016
      4 C          61.8137   88.6580   10.9063 C.ar    1  UNL1        0.0084
      5 C          62.0762   90.0448   10.3986 C.ar    1  UNL1       -0.0016
      6 C          63.0683   90.9248   11.0995 C.ar    1  UNL1       -0.0002
      7 O          67.7665   93.9379   15.1117 O.3     1  UNL1       -0.5055
      8 C          66.7744   93.0579   14.4108 C.ar    1  UNL1        0.1337
      9 C          66.2500   91.8285   15.0915 C.ar    1  UNL1        0.0366
     10 C          65.2579   90.9485   14.3906 C.ar    1  UNL1        0.0031
     11 C          64.7901   91.2979   13.0090 C.ar    1  UNL1        0.0002
     12 C          65.3144   92.5274   12.3282 C.ar    1  UNL1        0.0031
     13 C          66.3066   93.4074   13.0291 C.ar    1  UNL1        0.0366
     14 H          68.0587   93.7196   15.9748 H       1  UNL1        0.2922
     15 C          60.8215   87.7780   10.2054 C.3     1  UNL1        0.1551
     16 O          59.3636   87.8728   10.5450 O.3     1  UNL1       -0.3756
     17 H          58.8641   87.2403   10.0052 H       1  UNL1        0.2112
     18 C          61.2873   86.8031    9.1649 C.ar    1  UNL1        0.0115
     19 C          62.6668   86.2198    9.2477 C.ar    1  UNL1        0.0191
     20 C          63.1326   85.2450    8.2072 C.ar    1  UNL1        0.0986
     21 N          62.2190   84.8534    7.0838 N.ar    1  UNL1       -0.2423
     22 C          60.8396   85.4367    7.0009 C.ar    1  UNL1        0.0986
     23 C          60.3737   86.4116    8.0415 C.ar    1  UNL1        0.0191
@<TRIPOS>BOND
     1     7     8    1
     2     8     9   ar
     3     9    10   ar
     4    10    11   ar
     5    11     1    1
     6     1     2   ar
     7     2     3   ar
     8     3     4   ar
     9     4    15    1
    10    15    16    1
    11    15    18    1
    12    18    19   ar
    13    19    20   ar
    14    20    21   ar
    15    21    22   ar
    16    22    23   ar
    17     4     5   ar
    18     5     6   ar
    19    11    12   ar
    20    12    13   ar
    21    13     8   ar
    22     6     1   ar
    23    23    18   ar
    24     7    14    1
    25    16    17    1
@<TRIPOS>MOLECULE
*****
 23 25 0 0 0
SMALL
GASTEIGER

@<TRIPOS>ATOM
      1 C          64.6370   90.6263   13.3305 C.ar    1  UNL1       -0.0000
      2 C          64.3771   89.2351   13.8275 C.ar    1  UNL1       -0.0002
      3 C          63.4198   88.3433   13.0939 C.ar    1  UNL1       -0.0016
      4 C          62.7224   88.8426   11.8634 C.ar    1  UNL1        0.0084
      5 C          62.9823   90.2338   11.3664 C.ar    1  UNL1       -0.0016
      6 C          63.9397   91.1256   12.1000 C.ar    1  UNL1       -0.0002
      7 O          68.4663   94.1937   16.2649 O.3     1  UNL1       -0.5055
      8 C          67.5090   93.3018   15.5313 C.ar    1  UNL1        0.1337
      9 C          67.7628   92.9488   14.0957 C.ar    1  UNL1        0.0366
     10 C          66.8055   92.0570   13.3621 C.ar    1  UNL1        0.0031
     11 C          65.5944   91.5182   14.0641 C.ar    1  UNL1        0.0002
     12 C          65.3406   91.8712   15.4997 C.ar    1  UNL1        0.0031
     13 C          66.2979   92.7630   16.2333 C.ar    1  UNL1        0.0366
     14 H          69.2229   94.5303   15.8263 H       1  UNL1        0.2922
     15 C          61.7651   87.9508   11.1298 C.3     1  UNL1        0.1551
     16 O          60.3213   88.3390   11.0084 O.3     1  UNL1       -0.3756
     17 H          59.8444   87.6581   10.5085 H       1  UNL1        0.2112
     18 C          62.2515   86.6707   10.5177 C.ar    1  UNL1        0.0115
     19 C          62.5141   85.4762   11.3862 C.ar    1  UNL1        0.0191
     20 C          63.0005   84.1962   10.7741 C.ar    1  UNL1        0.0986
     21 N          63.2244   84.1105    9.2934 N.ar    1  UNL1       -0.2423
     22 C          62.9618   85.3049    8.4248 C.ar    1  UNL1        0.0986
     23 C          62.4754   86.5850    9.0369 C.ar    1  UNL1        0.0191
@<TRIPOS>BOND
     1     7     8    1
     2     8     9   ar
     3     9    10   ar
     4    10    11   ar
     5    11     1    1
     6     1     2   ar
     7     2     3   ar
     8     3     4   ar
     9     4    15    1
    10    15    16    1
    11    15    18    1
    12    18    19   ar
    13    19    20   ar
    14    20    21   ar
    15    21    22   ar
    16    22    23   ar
    17     4     5   ar
    18     5     6   ar
    19    11    12   ar
    20    12    13   ar
    21    13     8   ar
    22     6     1   ar
    23    23    18   ar
    24     7    14    1
    25    16    17    1
