@<TRIPOS>MOLECULE
*****
 50 55 0 0 0
SMALL
GASTEIGER

@<TRIPOS>ATOM
      1 N          63.1367   90.4718   12.1275 N.am    1  UNL1       -0.2803
      2 C          64.2577   91.3874   11.7338 C.2     1  UNL1        0.2508
      3 O          64.5187   91.6734   10.2847 O.2     1  UNL1       -0.2698
      4 H          62.9654   90.2841   13.0787 H       1  UNL1        0.1552
      5 C          60.5568   88.5827    8.9612 C.ar    1  UNL1       -0.0207
      6 C          60.1798   89.9142    9.5399 C.ar    1  UNL1       -0.0029
      7 C          61.0398   90.5439   10.5954 C.ar    1  UNL1        0.0144
      8 C          62.2768   89.8421   11.0721 C.ar    1  UNL1        0.0505
      9 C          62.6538   88.5105   10.4934 C.ar    1  UNL1        0.0144
     10 C          61.7939   87.8808    9.4380 C.ar    1  UNL1       -0.0029
     11 C          59.6969   87.9530    7.9058 C.3     1  UNL1        0.0437
     12 C          58.5617   88.7264    7.3034 C.3     1  UNL1        0.0771
     13 C          61.0326   93.0500    2.5651 C.ar    1  UNL1        0.1721
     14 C          59.6552   92.9078    3.1415 C.ar    1  UNL1        0.0356
     15 C          59.3817   91.8624    4.1820 C.ar    1  UNL1       -0.0202
     16 C          60.4859   90.9593    4.6460 C.ar    1  UNL1       -0.0068
     17 C          61.8634   91.1016    4.0696 C.ar    1  UNL1        0.0368
     18 C          62.1368   92.1469    3.0291 C.ar    1  UNL1        0.1721
     19 C          60.2125   89.9140    5.6865 C.3     1  UNL1        0.0990
     20 N          58.8351   89.7718    6.2629 N.3     1  UNL1       -0.2683
     21 C          57.7309   90.6749    5.7988 C.3     1  UNL1        0.0771
     22 C          58.0043   91.7202    4.7584 C.3     1  UNL1        0.0435
     23 C          61.0492   93.7978    0.0770 C.3     1  UNL1        0.2526
     24 O          61.3060   94.0953    1.5246 O.3     1  UNL1       -0.4684
     25 O          63.5143   92.2892    2.4527 O.3     1  UNL1       -0.4684
     26 C          64.1160   93.6517    2.2751 C.3     1  UNL1        0.2526
     27 C          65.1176   92.0171   12.7893 C.ar    1  UNL1        0.0703
     28 C          65.5225   93.4563   12.6667 C.ar    1  UNL1        0.0458
     29 C          66.3823   94.0860   13.7222 C.ar    1  UNL1        0.1726
     30 C          66.8374   93.2766   14.9002 C.ar    1  UNL1        0.1736
     31 C          66.4325   91.8375   15.0228 C.ar    1  UNL1        0.0549
     32 C          65.5726   91.2077   13.9674 C.ar    1  UNL1        0.0582
     33 N          65.1678   89.7686   14.0899 N.am    1  UNL1       -0.2801
     34 C          64.2123   89.3474   15.1668 C.2     1  UNL1        0.2510
     35 O          63.6617   90.3653   16.1211 O.2     1  UNL1       -0.2698
     36 H          65.5292   89.1005   13.4636 H       1  UNL1        0.1552
     37 C          63.8075   87.9083   15.2894 C.ar    1  UNL1        0.0728
     38 C          63.1134   87.4274   16.5291 C.ar    1  UNL1        0.1033
     39 N          62.7085   85.9883   16.6517 N.ar    1  UNL1       -0.2437
     40 C          62.9978   85.0301   15.5346 C.ar    1  UNL1        0.0813
     41 C          62.5929   83.5909   15.6571 C.ar    1  UNL1        0.0191
     42 C          62.8822   82.6327   14.5399 C.ar    1  UNL1        0.0015
     43 C          63.5762   83.1135   13.3002 C.ar    1  UNL1        0.0001
     44 C          63.9811   84.5526   13.1776 C.ar    1  UNL1        0.0015
     45 C          63.6919   85.5109   14.2947 C.ar    1  UNL1        0.0178
     46 C          64.0967   86.9500   14.1721 C.ar    1  UNL1        0.0076
     47 O          66.7872   95.5251   13.5996 O.3     1  UNL1       -0.4684
     48 C          66.4447   96.2976   12.3603 C.3     1  UNL1        0.2526
     49 O          67.6973   93.9063   15.9557 O.3     1  UNL1       -0.4683
     50 C          69.1885   93.7546   15.8973 C.3     1  UNL1        0.2526
@<TRIPOS>BOND
     1    23    24    1
     2    24    13    1
     3    13    14   ar
     4    14    15   ar
     5    15    16   ar
     6    16    17   ar
     7    17    18   ar
     8    18    25    1
     9    25    26    1
    10    16    19    1
    11    19    20    1
    12    20    12    1
    13    12    11    1
    14    11     5    1
    15     5     6   ar
    16     6     7   ar
    17     7     8   ar
    18     8     1    1
    19     1     2   am
    20     2     3    2
    21     2    27    1
    22    27    28   ar
    23    28    29   ar
    24    29    47    1
    25    47    48    1
    26    29    30   ar
    27    30    49    1
    28    49    50    1
    29    30    31   ar
    30    31    32   ar
    31    32    33    1
    32    33    34   am
    33    34    35    2
    34    34    37    1
    35    37    38   ar
    36    38    39   ar
    37    39    40   ar
    38    40    41   ar
    39    41    42   ar
    40    42    43   ar
    41    43    44   ar
    42    44    45   ar
    43    45    46   ar
    44     8     9   ar
    45     9    10   ar
    46    20    21    1
    47    21    22    1
    48    18    13   ar
    49    10     5   ar
    50    22    15    1
    51    32    27   ar
    52    46    37   ar
    53    45    40   ar
    54     1     4    1
    55    33    36    1
@<TRIPOS>MOLECULE
*****
 50 55 0 0 0
SMALL
GASTEIGER

@<TRIPOS>ATOM
      1 N          60.6761   86.5974   10.6165 N.am    1  UNL1       -0.2803
      2 C          61.9055   85.7431   10.5226 C.2     1  UNL1        0.2508
      3 O          62.6826   85.6854    9.2409 O.2     1  UNL1       -0.2698
      4 H          60.1661   86.6352   11.4577 H       1  UNL1        0.1552
      5 C          59.3194   88.9875    7.0533 C.ar    1  UNL1       -0.0207
      6 C          60.0752   89.6577    8.1622 C.ar    1  UNL1       -0.0029
      7 C          60.5275   88.8609    9.3500 C.ar    1  UNL1        0.0144
      8 C          60.2239   87.3941    9.4288 C.ar    1  UNL1        0.0505
      9 C          59.4680   86.7240    8.3199 C.ar    1  UNL1        0.0144
     10 C          59.0158   87.5206    7.1322 C.ar    1  UNL1       -0.0029
     11 C          58.8671   89.7842    5.8656 C.3     1  UNL1        0.0437
     12 C          59.2566   91.2271    5.7380 C.3     1  UNL1        0.0771
     13 C          62.2983   94.0203    0.2428 C.ar    1  UNL1        0.1721
     14 C          62.7878   92.9928    1.2198 C.ar    1  UNL1        0.0356
     15 C          61.9050   92.5514    2.3494 C.ar    1  UNL1       -0.0202
     16 C          60.5327   93.1374    2.5019 C.ar    1  UNL1       -0.0068
     17 C          60.0432   94.1649    1.5247 C.ar    1  UNL1        0.0368
     18 C          60.9260   94.6063    0.3953 C.ar    1  UNL1        0.1721
     19 C          59.6499   92.6960    3.6313 C.3     1  UNL1        0.0990
     20 N          60.1394   91.6686    4.6084 N.3     1  UNL1       -0.2683
     21 C          61.5118   91.0825    4.4559 C.3     1  UNL1        0.0771
     22 C          62.3946   91.5239    3.3265 C.3     1  UNL1        0.0435
     23 C          64.5071   95.1003   -0.5968 C.3     1  UNL1        0.2526
     24 O          63.1811   94.4617   -0.8868 O.3     1  UNL1       -0.4684
     25 O          60.4364   95.6338   -0.5819 O.3     1  UNL1       -0.4684
     26 C          59.6044   95.2144   -1.7574 C.3     1  UNL1        0.2526
     27 C          62.3577   84.9464   11.7104 C.ar    1  UNL1        0.0703
     28 C          61.9241   83.5188   11.8650 C.ar    1  UNL1        0.0458
     29 C          62.3763   82.7221   13.0528 C.ar    1  UNL1        0.1726
     30 C          63.2621   83.3530   14.0858 C.ar    1  UNL1        0.1736
     31 C          63.6957   84.7806   13.9312 C.ar    1  UNL1        0.0549
     32 C          63.2435   85.5773   12.7434 C.ar    1  UNL1        0.0582
     33 N          63.6771   87.0049   12.5888 N.am    1  UNL1       -0.2801
     34 C          63.9363   87.8458   13.8035 C.2     1  UNL1        0.2510
     35 O          63.7619   87.2591   15.1730 O.2     1  UNL1       -0.2698
     36 H          63.7916   87.3899   11.6900 H       1  UNL1        0.1552
     37 C          64.3699   89.2734   13.6488 C.ar    1  UNL1        0.0728
     38 C          63.7523   90.1340   12.5869 C.ar    1  UNL1        0.1033
     39 N          64.1859   91.5616   12.4322 N.ar    1  UNL1       -0.2437
     40 C          65.2372   92.1286   13.3395 C.ar    1  UNL1        0.0813
     41 C          65.6708   93.5562   13.1848 C.ar    1  UNL1        0.0191
     42 C          66.7222   94.1232   14.0922 C.ar    1  UNL1        0.0015
     43 C          67.3398   93.2626   15.1542 C.ar    1  UNL1        0.0001
     44 C          66.9062   91.8350   15.3088 C.ar    1  UNL1        0.0015
     45 C          65.8549   91.2680   14.4015 C.ar    1  UNL1        0.0178
     46 C          65.4213   89.8404   14.5562 C.ar    1  UNL1        0.0076
     47 O          61.9426   81.2945   13.2074 O.3     1  UNL1       -0.4684
     48 C          60.8244   80.9477   14.1451 C.3     1  UNL1        0.2526
     49 O          63.7143   82.5563   15.2737 O.3     1  UNL1       -0.4683
     50 C          64.5355   83.2089   16.3459 C.3     1  UNL1        0.2526
@<TRIPOS>BOND
     1    23    24    1
     2    24    13    1
     3    13    14   ar
     4    14    15   ar
     5    15    16   ar
     6    16    17   ar
     7    17    18   ar
     8    18    25    1
     9    25    26    1
    10    16    19    1
    11    19    20    1
    12    20    12    1
    13    12    11    1
    14    11     5    1
    15     5     6   ar
    16     6     7   ar
    17     7     8   ar
    18     8     1    1
    19     1     2   am
    20     2     3    2
    21     2    27    1
    22    27    28   ar
    23    28    29   ar
    24    29    47    1
    25    47    48    1
    26    29    30   ar
    27    30    49    1
    28    49    50    1
    29    30    31   ar
    30    31    32   ar
    31    32    33    1
    32    33    34   am
    33    34    35    2
    34    34    37    1
    35    37    38   ar
    36    38    39   ar
    37    39    40   ar
    38    40    41   ar
    39    41    42   ar
    40    42    43   ar
    41    43    44   ar
    42    44    45   ar
    43    45    46   ar
    44     8     9   ar
    45     9    10   ar
    46    20    21    1
    47    21    22    1
    48    18    13   ar
    49    10     5   ar
    50    22    15    1
    51    32    27   ar
    52    46    37   ar
    53    45    40   ar
    54     1     4    1
    55    33    36    1
@<TRIPOS>MOLECULE
*****
 50 55 0 0 0
SMALL
GASTEIGER

@<TRIPOS>ATOM
      1 N          61.5784   93.1616    0.4645 N.am    1  UNL1       -0.2803
      2 C          60.8242   92.8527   -0.7948 C.2     1  UNL1        0.2508
      3 O          59.5395   92.0812   -0.7294 O.2     1  UNL1       -0.2698
      4 H          62.4216   93.6680    0.4215 H       1  UNL1        0.1552
      5 C          59.9872   91.7738    4.4383 C.ar    1  UNL1       -0.0207
      6 C          61.4073   91.4799    4.0551 C.ar    1  UNL1       -0.0029
      7 C          61.9377   91.9426    2.7304 C.ar    1  UNL1        0.0144
      8 C          61.0480   92.6990    1.7891 C.ar    1  UNL1        0.0505
      9 C          59.6279   92.9929    2.1723 C.ar    1  UNL1        0.0144
     10 C          59.0975   92.5303    3.4969 C.ar    1  UNL1       -0.0029
     11 C          59.4568   91.3112    5.7629 C.3     1  UNL1        0.0437
     12 C          58.8986   89.9262    5.9051 C.3     1  UNL1        0.0771
     13 C          61.9135   86.7620   11.2106 C.ar    1  UNL1        0.1721
     14 C          61.1063   86.2149   10.0708 C.ar    1  UNL1        0.0356
     15 C          60.5544   87.1428    9.0293 C.ar    1  UNL1       -0.0202
     16 C          60.8096   88.6176    9.1278 C.ar    1  UNL1       -0.0068
     17 C          61.6168   89.1646   10.2677 C.ar    1  UNL1        0.0368
     18 C          62.1687   88.2368   11.3091 C.ar    1  UNL1        0.1721
     19 C          60.2577   89.5454    8.0864 C.3     1  UNL1        0.0990
     20 N          59.4506   88.9984    6.9465 N.3     1  UNL1       -0.2683
     21 C          59.1954   87.5235    6.8481 C.3     1  UNL1        0.0771
     22 C          59.7473   86.5957    7.8895 C.3     1  UNL1        0.0435
     23 C          62.6689   84.3830   11.9317 C.3     1  UNL1        0.2526
     24 O          62.4654   85.8342   12.2521 O.3     1  UNL1       -0.4684
     25 O          62.9758   88.7839   12.4490 O.3     1  UNL1       -0.4684
     26 C          63.3866   90.2265   12.4527 C.3     1  UNL1        0.2526
     27 C          61.3547   93.3153   -2.1194 C.ar    1  UNL1        0.0703
     28 C          62.8174   93.1893   -2.4269 C.ar    1  UNL1        0.0458
     29 C          63.3479   93.6519   -3.7515 C.ar    1  UNL1        0.1726
     30 C          62.4157   94.2406   -4.7686 C.ar    1  UNL1        0.1736
     31 C          60.9529   94.3666   -4.4610 C.ar    1  UNL1        0.0549
     32 C          60.4224   93.9040   -3.1365 C.ar    1  UNL1        0.0582
     33 N          58.9597   94.0300   -2.8290 N.am    1  UNL1       -0.2801
     34 C          58.2600   95.3405   -3.0360 C.2     1  UNL1        0.2510
     35 O          59.0230   96.5251   -3.5506 O.2     1  UNL1       -0.2698
     36 H          58.4589   93.2525   -2.4912 H       1  UNL1        0.1552
     37 C          56.7973   95.4665   -2.7285 C.ar    1  UNL1        0.0728
     38 C          56.3144   95.3377   -1.3142 C.ar    1  UNL1        0.1033
     39 N          54.8517   95.4638   -1.0067 N.ar    1  UNL1       -0.2437
     40 C          53.8718   95.7185   -2.1135 C.ar    1  UNL1        0.0813
     41 C          52.4091   95.8446   -1.8060 C.ar    1  UNL1        0.0191
     42 C          51.4292   96.0994   -2.9128 C.ar    1  UNL1        0.0015
     43 C          51.9121   96.2281   -4.3271 C.ar    1  UNL1        0.0001
     44 C          53.3748   96.1021   -4.6346 C.ar    1  UNL1        0.0015
     45 C          54.3547   95.8473   -3.5278 C.ar    1  UNL1        0.0178
     46 C          55.8174   95.7213   -3.8353 C.ar    1  UNL1        0.0076
     47 O          64.8106   93.5259   -4.0590 O.3     1  UNL1       -0.4684
     48 C          65.3014   92.4015   -4.9219 C.3     1  UNL1        0.2526
     49 O          62.9461   94.7032   -6.0932 O.3     1  UNL1       -0.4683
     50 C          62.9209   93.7799   -7.2751 C.3     1  UNL1        0.2526
@<TRIPOS>BOND
     1    23    24    1
     2    24    13    1
     3    13    14   ar
     4    14    15   ar
     5    15    16   ar
     6    16    17   ar
     7    17    18   ar
     8    18    25    1
     9    25    26    1
    10    16    19    1
    11    19    20    1
    12    20    12    1
    13    12    11    1
    14    11     5    1
    15     5     6   ar
    16     6     7   ar
    17     7     8   ar
    18     8     1    1
    19     1     2   am
    20     2     3    2
    21     2    27    1
    22    27    28   ar
    23    28    29   ar
    24    29    47    1
    25    47    48    1
    26    29    30   ar
    27    30    49    1
    28    49    50    1
    29    30    31   ar
    30    31    32   ar
    31    32    33    1
    32    33    34   am
    33    34    35    2
    34    34    37    1
    35    37    38   ar
    36    38    39   ar
    37    39    40   ar
    38    40    41   ar
    39    41    42   ar
    40    42    43   ar
    41    43    44   ar
    42    44    45   ar
    43    45    46   ar
    44     8     9   ar
    45     9    10   ar
    46    20    21    1
    47    21    22    1
    48    18    13   ar
    49    10     5   ar
    50    22    15    1
    51    32    27   ar
    52    46    37   ar
    53    45    40   ar
    54     1     4    1
    55    33    36    1
@<TRIPOS>MOLECULE
*****
 50 55 0 0 0
SMALL
GASTEIGER

@<TRIPOS>ATOM
      1 N          61.4199   93.5022    2.0817 N.am    1  UNL1       -0.2803
      2 C          61.2209   93.1803    0.6303 C.2     1  UNL1        0.2508
      3 O          60.3570   92.0210    0.2307 O.2     1  UNL1       -0.2698
      4 H          61.9870   94.2631    2.3440 H       1  UNL1        0.1552
      5 C          59.4254   90.9897    5.2376 C.ar    1  UNL1       -0.0207
      6 C          60.8935   90.8342    4.9722 C.ar    1  UNL1       -0.0029
      7 C          61.5584   91.6717    3.9202 C.ar    1  UNL1        0.0144
      8 C          60.7551   92.6647    3.1337 C.ar    1  UNL1        0.0505
      9 C          59.2870   92.8203    3.3991 C.ar    1  UNL1        0.0144
     10 C          58.6222   91.9828    4.4510 C.ar    1  UNL1       -0.0029
     11 C          58.7606   90.1523    6.2895 C.3     1  UNL1        0.0437
     12 C          59.0409   88.6806    6.3645 C.3     1  UNL1        0.0771
     13 C          62.7525   87.3486   11.9947 C.ar    1  UNL1        0.1721
     14 C          62.0243   86.4302   11.0587 C.ar    1  UNL1        0.0356
     15 C          61.2784   86.9928    9.8851 C.ar    1  UNL1       -0.0202
     16 C          61.2608   88.4738    9.6476 C.ar    1  UNL1       -0.0068
     17 C          61.9891   89.3922   10.5837 C.ar    1  UNL1        0.0368
     18 C          62.7350   88.8296   11.7572 C.ar    1  UNL1        0.1721
     19 C          60.5150   89.0364    8.4741 C.3     1  UNL1        0.0990
     20 N          59.7867   88.1180    7.5381 N.3     1  UNL1       -0.2683
     21 C          59.8043   86.6370    7.7756 C.3     1  UNL1        0.0771
     22 C          60.5501   86.0744    8.9491 C.3     1  UNL1        0.0435
     23 C          63.5688   85.3013   13.3705 C.3     1  UNL1        0.2526
     24 O          63.4984   86.7860   13.1683 O.3     1  UNL1       -0.4684
     25 O          63.4633   89.7479   12.6933 O.3     1  UNL1       -0.4684
     26 C          63.6654   91.1880   12.3252 C.3     1  UNL1        0.2526
     27 C          61.8858   94.0179   -0.4217 C.ar    1  UNL1        0.0703
     28 C          63.0151   94.9322   -0.0494 C.ar    1  UNL1        0.0458
     29 C          63.6800   95.7697   -1.1012 C.ar    1  UNL1        0.1726
     30 C          63.2156   95.6929   -2.5254 C.ar    1  UNL1        0.1736
     31 C          62.0862   94.7785   -2.8978 C.ar    1  UNL1        0.0549
     32 C          61.4214   93.9410   -1.8459 C.ar    1  UNL1        0.0582
     33 N          60.2920   93.0267   -2.2182 N.am    1  UNL1       -0.2801
     34 C          59.0224   93.5935   -2.7810 C.2     1  UNL1        0.2510
     35 O          58.8821   95.0748   -2.9714 O.2     1  UNL1       -0.2698
     36 H          60.3841   92.0545   -2.0932 H       1  UNL1        0.1552
     37 C          57.8931   92.6792   -3.1533 C.ar    1  UNL1        0.0728
     38 C          57.1584   91.9221   -2.0870 C.ar    1  UNL1        0.1033
     39 N          56.0291   91.0078   -2.4594 N.ar    1  UNL1       -0.2437
     40 C          55.6345   90.8505   -3.8979 C.ar    1  UNL1        0.0813
     41 C          54.5052   89.9362   -4.2702 C.ar    1  UNL1        0.0191
     42 C          54.1106   89.7790   -5.7089 C.ar    1  UNL1        0.0015
     43 C          54.8453   90.5361   -6.7752 C.ar    1  UNL1        0.0001
     44 C          55.9746   91.4504   -6.4028 C.ar    1  UNL1        0.0015
     45 C          56.3692   91.6076   -4.9643 C.ar    1  UNL1        0.0178
     46 C          57.4985   92.5220   -4.5919 C.ar    1  UNL1        0.0076
     47 O          64.8093   96.6840   -0.7289 O.3     1  UNL1       -0.4684
     48 C          65.3884   96.6361    0.6539 C.3     1  UNL1        0.2526
     49 O          63.8805   96.5304   -3.5774 O.3     1  UNL1       -0.4683
     50 C          65.1659   96.0716   -4.1997 C.3     1  UNL1        0.2526
@<TRIPOS>BOND
     1    23    24    1
     2    24    13    1
     3    13    14   ar
     4    14    15   ar
     5    15    16   ar
     6    16    17   ar
     7    17    18   ar
     8    18    25    1
     9    25    26    1
    10    16    19    1
    11    19    20    1
    12    20    12    1
    13    12    11    1
    14    11     5    1
    15     5     6   ar
    16     6     7   ar
    17     7     8   ar
    18     8     1    1
    19     1     2   am
    20     2     3    2
    21     2    27    1
    22    27    28   ar
    23    28    29   ar
    24    29    47    1
    25    47    48    1
    26    29    30   ar
    27    30    49    1
    28    49    50    1
    29    30    31   ar
    30    31    32   ar
    31    32    33    1
    32    33    34   am
    33    34    35    2
    34    34    37    1
    35    37    38   ar
    36    38    39   ar
    37    39    40   ar
    38    40    41   ar
    39    41    42   ar
    40    42    43   ar
    41    43    44   ar
    42    44    45   ar
    43    45    46   ar
    44     8     9   ar
    45     9    10   ar
    46    20    21    1
    47    21    22    1
    48    18    13   ar
    49    10     5   ar
    50    22    15    1
    51    32    27   ar
    52    46    37   ar
    53    45    40   ar
    54     1     4    1
    55    33    36    1
