@<TRIPOS>MOLECULE
*****
 39 42 0 0 0
SMALL
GASTEIGER

@<TRIPOS>ATOM
      1 C          64.1705   89.3514   13.1926 C.ar    1  UNL1        0.0053
      2 C          64.4567   89.1428   14.6502 C.ar    1  UNL1        0.0033
      3 C          64.2249   87.7991   15.2751 C.ar    1  UNL1        0.0382
      4 C          63.7069   86.6639   14.4425 C.ar    1  UNL1        0.1529
      5 C          63.4208   86.8725   12.9850 C.ar    1  UNL1        0.0881
      6 C          63.6526   88.2163   12.3600 C.ar    1  UNL1        0.0181
      7 N          62.9029   85.7374   12.1523 N.am    1  UNL1       -0.2528
      8 C          62.6711   84.3937   12.7773 C.2     1  UNL1        0.2697
      9 O          62.1532   83.2586   11.9447 O.2     1  UNL1       -0.2704
     10 C          62.9572   84.1850   14.2350 C.3     1  UNL1        0.2199
     11 C          63.0780   83.4995   15.5637 C.3     1  UNL1        0.0579
     12 O          63.4751   85.3202   15.0676 O.3     1  UNL1       -0.4686
     13 C          65.3075   91.6871   13.2359 C.ar    1  UNL1        0.0645
     14 N          65.5394   93.0308   12.6110 N.ar    1  UNL1       -0.2183
     15 C          64.8660   93.3827   11.3176 C.ar    1  UNL1        0.2145
     16 N          65.0978   94.7264   10.6926 N.pl3   1  UNL1       -0.3274
     17 N          63.9608   92.3907   10.6492 N.ar    1  UNL1       -0.1995
     18 C          63.7290   91.0470   11.2742 C.ar    1  UNL1        0.1293
     19 N          62.8238   90.0550   10.6059 N.pl3   1  UNL1       -0.3425
     20 C          64.4023   90.6952   12.5676 C.ar    1  UNL1        0.0449
     21 H          65.6919   95.3774   11.1313 H       1  UNL1        0.1452
     22 H          64.6558   94.9573    9.8437 H       1  UNL1        0.1452
     23 H          62.3818   90.2859    9.7570 H       1  UNL1        0.1437
     24 H          62.6717   89.1731   11.0161 H       1  UNL1        0.1437
     25 C          67.4235   91.6861   14.7436 C.3     1  UNL1        0.0067
     26 C          65.9809   91.3352   14.5294 C.3     1  UNL1        0.0460
     27 C          62.4813   82.8119   13.8638 C.ar    1  UNL1        0.0264
     28 C          63.2474   81.9973   12.8641 C.ar    1  UNL1        0.0293
     29 C          62.7714   80.6241   12.4929 C.ar    1  UNL1        0.1422
     30 F          63.5376   79.8095   11.4931 F       1  UNL1       -0.2041
     31 C          61.5294   80.0654   13.1214 C.ar    1  UNL1        0.0592
     32 C          60.7632   80.8800   14.1211 C.ar    1  UNL1        0.1422
     33 F          59.5211   80.3214   14.7497 F       1  UNL1       -0.2041
     34 C          61.2391   82.2532   14.4924 C.ar    1  UNL1        0.0293
     35 C          62.6168   85.9460   10.6948 C.3     1  UNL1        0.1010
     36 C          61.2000   86.0763   10.2197 C.3     1  UNL1        0.0539
     37 C          60.4884   87.3918   10.3347 C.3     1  UNL1        0.1440
     38 O          60.3894   88.0771   11.6653 O.3     1  UNL1       -0.3510
     39 C          59.6105   89.3523   11.7961 C.3     1  UNL1        0.1741
@<TRIPOS>BOND
     1    25    26    1
     2    26    13    1
     3    13    14   ar
     4    14    15   ar
     5    15    16    1
     6    15    17   ar
     7    17    18   ar
     8    18    19    1
     9    18    20   ar
    10    20     1    1
    11     1     2   ar
    12     2     3   ar
    13     3     4   ar
    14     4     5   ar
    15     5     6   ar
    16     5     7    1
    17     7    35    1
    18    35    36    1
    19    36    37    1
    20    37    38    1
    21    38    39    1
    22     7     8   am
    23     8     9    2
    24     8    10    1
    25    10    11    1
    26    10    27    1
    27    27    28   ar
    28    28    29   ar
    29    29    30    1
    30    29    31   ar
    31    31    32   ar
    32    32    33    1
    33    32    34   ar
    34    10    12    1
    35    20    13   ar
    36     6     1   ar
    37    34    27   ar
    38    12     4    1
    39    16    21    1
    40    16    22    1
    41    19    23    1
    42    19    24    1
@<TRIPOS>MOLECULE
*****
 39 42 0 0 0
SMALL
GASTEIGER

@<TRIPOS>ATOM
      1 C          65.3711   90.7018   14.1027 C.ar    1  UNL1        0.0053
      2 C          65.0865   89.4182   14.8247 C.ar    1  UNL1        0.0033
      3 C          64.1649   88.4035   14.2155 C.ar    1  UNL1        0.0382
      4 C          63.5280   88.6725   12.8843 C.ar    1  UNL1        0.1529
      5 C          63.8126   89.9561   12.1624 C.ar    1  UNL1        0.0881
      6 C          64.7341   90.9708   12.7715 C.ar    1  UNL1        0.0181
      7 N          63.1756   90.2251   10.8312 N.am    1  UNL1       -0.2528
      8 C          62.2541   89.2104   10.2220 C.2     1  UNL1        0.2697
      9 O          61.6171   89.4794    8.8909 O.2     1  UNL1       -0.2704
     10 C          61.9694   87.9267   10.9440 C.3     1  UNL1        0.2199
     11 C          61.3942   86.5732   11.2393 C.3     1  UNL1        0.0579
     12 O          62.6063   87.6578   12.2751 O.3     1  UNL1       -0.4686
     13 C          67.6128   92.0146   14.0650 C.ar    1  UNL1        0.0645
     14 N          68.5344   93.0293   14.6741 N.ar    1  UNL1       -0.2183
     15 C          68.1359   93.7459   15.9302 C.ar    1  UNL1        0.2145
     16 N          69.0575   94.7606   16.5393 N.pl3   1  UNL1       -0.3274
     17 N          66.8158   93.4479   16.5771 N.ar    1  UNL1       -0.1995
     18 C          65.8942   92.4331   15.9679 C.ar    1  UNL1        0.1293
     19 N          64.5741   92.1350   16.6148 N.pl3   1  UNL1       -0.3425
     20 C          66.2927   91.7165   14.7119 C.ar    1  UNL1        0.0449
     21 H          69.9239   94.9563   16.1147 H       1  UNL1        0.1452
     22 H          68.7959   95.2310   17.3637 H       1  UNL1        0.1452
     23 H          64.3126   92.6054   17.4392 H       1  UNL1        0.1437
     24 H          63.9692   91.4691   16.2150 H       1  UNL1        0.1437
     25 C          68.2521   92.0731   11.5474 C.3     1  UNL1        0.0067
     26 C          68.0113   91.2980   12.8089 C.3     1  UNL1        0.0460
     27 C          61.1327   87.7256    9.7154 C.ar    1  UNL1        0.0264
     28 C          60.2378   88.8267    9.2290 C.ar    1  UNL1        0.0293
     29 C          59.4010   88.6256    8.0004 C.ar    1  UNL1        0.1422
     30 F          58.5060   89.7268    7.5140 F       1  UNL1       -0.2041
     31 C          59.4593   87.3235    7.2582 C.ar    1  UNL1        0.0592
     32 C          60.3542   86.2224    7.7446 C.ar    1  UNL1        0.1422
     33 F          60.4125   84.9202    7.0023 F       1  UNL1       -0.2041
     34 C          61.1910   86.4234    8.9732 C.ar    1  UNL1        0.0293
     35 C          63.4603   91.5087   10.1092 C.3     1  UNL1        0.1010
     36 C          64.8428   92.0901   10.1298 C.3     1  UNL1        0.0539
     37 C          65.0496   93.5187   10.5379 C.3     1  UNL1        0.1440
     38 O          66.1655   94.3176    9.9323 O.3     1  UNL1       -0.3510
     39 C          66.6516   95.5627   10.6130 C.3     1  UNL1        0.1741
@<TRIPOS>BOND
     1    25    26    1
     2    26    13    1
     3    13    14   ar
     4    14    15   ar
     5    15    16    1
     6    15    17   ar
     7    17    18   ar
     8    18    19    1
     9    18    20   ar
    10    20     1    1
    11     1     2   ar
    12     2     3   ar
    13     3     4   ar
    14     4     5   ar
    15     5     6   ar
    16     5     7    1
    17     7    35    1
    18    35    36    1
    19    36    37    1
    20    37    38    1
    21    38    39    1
    22     7     8   am
    23     8     9    2
    24     8    10    1
    25    10    11    1
    26    10    27    1
    27    27    28   ar
    28    28    29   ar
    29    29    30    1
    30    29    31   ar
    31    31    32   ar
    32    32    33    1
    33    32    34   ar
    34    10    12    1
    35    20    13   ar
    36     6     1   ar
    37    34    27   ar
    38    12     4    1
    39    16    21    1
    40    16    22    1
    41    19    23    1
    42    19    24    1
@<TRIPOS>MOLECULE
*****
 39 42 0 0 0
SMALL
GASTEIGER

@<TRIPOS>ATOM
      1 C          64.1331   89.2561   13.1221 C.ar    1  UNL1        0.0053
      2 C          64.4548   89.0477   14.5723 C.ar    1  UNL1        0.0033
      3 C          64.2388   87.7040   15.2028 C.ar    1  UNL1        0.0382
      4 C          63.7012   86.5686   14.3832 C.ar    1  UNL1        0.1529
      5 C          63.3795   86.7769   12.9330 C.ar    1  UNL1        0.0881
      6 C          63.5955   88.1207   12.3025 C.ar    1  UNL1        0.0181
      7 N          62.8418   85.6415   12.1134 N.am    1  UNL1       -0.2528
      8 C          62.6258   84.2978   12.7439 C.2     1  UNL1        0.2697
      9 O          62.0882   83.1624   11.9243 O.2     1  UNL1       -0.2704
     10 C          62.9475   84.0894   14.1942 C.3     1  UNL1        0.2199
     11 C          63.1010   83.4040   15.5196 C.3     1  UNL1        0.0579
     12 O          63.4852   85.2248   15.0138 O.3     1  UNL1       -0.4686
     13 C          63.6608   90.9434   11.2037 C.ar    1  UNL1        0.0645
     14 N          63.8767   92.2871   10.5731 N.ar    1  UNL1       -0.2183
     15 C          64.7810   93.2874   11.2302 C.ar    1  UNL1        0.2145
     16 N          64.9969   94.6311   10.5996 N.pl3   1  UNL1       -0.3274
     17 N          65.4693   92.9439   12.5180 N.ar    1  UNL1       -0.1995
     18 C          65.2533   91.6001   13.1486 C.ar    1  UNL1        0.1293
     19 N          65.9416   91.2567   14.4364 N.pl3   1  UNL1       -0.3425
     20 C          64.3491   90.5999   12.4915 C.ar    1  UNL1        0.0449
     21 H          64.5452   94.8566    9.7544 H       1  UNL1        0.1452
     22 H          65.5904   95.2877   11.0309 H       1  UNL1        0.1452
     23 H          66.5351   91.9132   14.8676 H       1  UNL1        0.1437
     24 H          65.7998   90.3747   14.8503 H       1  UNL1        0.1437
     25 C          61.3158   90.2814   10.3021 C.3     1  UNL1        0.0067
     26 C          62.7566   89.9430   10.5466 C.3     1  UNL1        0.0460
     27 C          62.4632   82.7160   13.8349 C.ar    1  UNL1        0.0264
     28 C          61.2318   82.1605   14.4869 C.ar    1  UNL1        0.0293
     29 C          60.7474   80.7871   14.1275 C.ar    1  UNL1        0.1422
     30 F          59.5160   80.2317   14.7797 F       1  UNL1       -0.2041
     31 C          61.4944   79.9691   13.1162 C.ar    1  UNL1        0.0592
     32 C          62.7258   80.5246   12.4642 C.ar    1  UNL1        0.1422
     33 F          63.4728   79.7066   11.4528 F       1  UNL1       -0.2041
     34 C          63.2102   81.8980   12.8235 C.ar    1  UNL1        0.0293
     35 C          62.5202   85.8499   10.6632 C.3     1  UNL1        0.1010
     36 C          61.1454   86.2902   10.2557 C.3     1  UNL1        0.0539
     37 C          60.8992   86.7862    8.8615 C.3     1  UNL1        0.1440
     38 O          59.5217   87.2139    8.4500 O.3     1  UNL1       -0.3510
     39 C          59.3415   88.4092    7.5619 C.3     1  UNL1        0.1741
@<TRIPOS>BOND
     1    25    26    1
     2    26    13    1
     3    13    14   ar
     4    14    15   ar
     5    15    16    1
     6    15    17   ar
     7    17    18   ar
     8    18    19    1
     9    18    20   ar
    10    20     1    1
    11     1     2   ar
    12     2     3   ar
    13     3     4   ar
    14     4     5   ar
    15     5     6   ar
    16     5     7    1
    17     7    35    1
    18    35    36    1
    19    36    37    1
    20    37    38    1
    21    38    39    1
    22     7     8   am
    23     8     9    2
    24     8    10    1
    25    10    11    1
    26    10    27    1
    27    27    28   ar
    28    28    29   ar
    29    29    30    1
    30    29    31   ar
    31    31    32   ar
    32    32    33    1
    33    32    34   ar
    34    10    12    1
    35    20    13   ar
    36     6     1   ar
    37    34    27   ar
    38    12     4    1
    39    16    21    1
    40    16    22    1
    41    19    23    1
    42    19    24    1
@<TRIPOS>MOLECULE
*****
 39 42 0 0 0
SMALL
GASTEIGER

@<TRIPOS>ATOM
      1 C          62.6474   84.2301   12.5215 C.ar    1  UNL1        0.0053
      2 C          61.8847   84.9005   11.4176 C.ar    1  UNL1        0.0033
      3 C          61.9706   86.3877   11.2424 C.ar    1  UNL1        0.0382
      4 C          62.8191   87.2045   12.1713 C.ar    1  UNL1        0.1529
      5 C          63.5818   86.5341   13.2753 C.ar    1  UNL1        0.0881
      6 C          63.4959   85.0469   13.4504 C.ar    1  UNL1        0.0181
      7 N          64.4303   87.3510   14.2042 N.am    1  UNL1       -0.2528
      8 C          64.5161   88.8382   14.0291 C.2     1  UNL1        0.2697
      9 O          65.3646   89.6550   14.9579 O.2     1  UNL1       -0.2704
     10 C          63.7534   89.5087   12.9250 C.3     1  UNL1        0.2199
     11 C          63.2213   90.5936   12.0364 C.3     1  UNL1        0.0579
     12 O          62.9049   88.6919   11.9962 O.3     1  UNL1       -0.4686
     13 C          62.8886   81.8325   11.5502 C.ar    1  UNL1        0.0645
     14 N          62.8028   80.3452   11.7254 N.ar    1  UNL1       -0.2183
     15 C          62.3899   79.7682   13.0470 C.ar    1  UNL1        0.2145
     16 N          62.3041   78.2810   13.2221 N.pl3   1  UNL1       -0.3274
     17 N          62.0628   80.6785   14.1934 N.ar    1  UNL1       -0.1995
     18 C          62.1487   82.1658   14.0183 C.ar    1  UNL1        0.1293
     19 N          61.8216   83.0761   15.1647 N.pl3   1  UNL1       -0.3425
     20 C          62.5616   82.7428   12.6967 C.ar    1  UNL1        0.0449
     21 H          62.5188   77.6835   12.4696 H       1  UNL1        0.1452
     22 H          62.0331   77.9023   14.0895 H       1  UNL1        0.1452
     23 H          61.5506   82.6974   16.0321 H       1  UNL1        0.1437
     24 H          61.8779   84.0523   15.0498 H       1  UNL1        0.1437
     25 C          64.6644   83.0152   10.0676 C.3     1  UNL1        0.0067
     26 C          63.3016   82.4095   10.2286 C.3     1  UNL1        0.0460
     27 C          64.4171   90.7023   13.5453 C.ar    1  UNL1        0.0264
     28 C          65.3175   91.5730   12.7200 C.ar    1  UNL1        0.0293
     29 C          65.9812   92.7667   13.3403 C.ar    1  UNL1        0.1422
     30 F          66.8816   93.6374   12.5149 F       1  UNL1       -0.2041
     31 C          65.7446   93.0896   14.7858 C.ar    1  UNL1        0.0592
     32 C          64.8442   92.2188   15.6111 C.ar    1  UNL1        0.1422
     33 F          64.6076   92.5417   17.0568 F       1  UNL1       -0.2041
     34 C          64.1805   91.0252   14.9909 C.ar    1  UNL1        0.0293
     35 C          65.1929   86.6806   15.3082 C.3     1  UNL1        0.1010
     36 C          64.5645   85.5582   16.0798 C.3     1  UNL1        0.0539
     37 C          63.4412   85.8401   17.0331 C.3     1  UNL1        0.1440
     38 O          62.5388   87.0159   16.8021 O.3     1  UNL1       -0.3510
     39 C          62.9328   88.3736   17.3033 C.3     1  UNL1        0.1741
@<TRIPOS>BOND
     1    25    26    1
     2    26    13    1
     3    13    14   ar
     4    14    15   ar
     5    15    16    1
     6    15    17   ar
     7    17    18   ar
     8    18    19    1
     9    18    20   ar
    10    20     1    1
    11     1     2   ar
    12     2     3   ar
    13     3     4   ar
    14     4     5   ar
    15     5     6   ar
    16     5     7    1
    17     7    35    1
    18    35    36    1
    19    36    37    1
    20    37    38    1
    21    38    39    1
    22     7     8   am
    23     8     9    2
    24     8    10    1
    25    10    11    1
    26    10    27    1
    27    27    28   ar
    28    28    29   ar
    29    29    30    1
    30    29    31   ar
    31    31    32   ar
    32    32    33    1
    33    32    34   ar
    34    10    12    1
    35    20    13   ar
    36     6     1   ar
    37    34    27   ar
    38    12     4    1
    39    16    21    1
    40    16    22    1
    41    19    23    1
    42    19    24    1
@<TRIPOS>MOLECULE
*****
 39 42 0 0 0
SMALL
GASTEIGER

@<TRIPOS>ATOM
      1 C          65.3901   90.7868   14.1127 C.ar    1  UNL1        0.0053
      2 C          65.0721   89.5183   14.8473 C.ar    1  UNL1        0.0033
      3 C          64.1264   88.5209   14.2467 C.ar    1  UNL1        0.0382
      4 C          63.4987   88.7919   12.9116 C.ar    1  UNL1        0.1529
      5 C          63.8167   90.0605   12.1770 C.ar    1  UNL1        0.0881
      6 C          64.7624   91.0579   12.7776 C.ar    1  UNL1        0.0181
      7 N          63.1891   90.3316   10.8419 N.am    1  UNL1       -0.2528
      8 C          62.2434   89.3341   10.2414 C.2     1  UNL1        0.2697
      9 O          61.6157   89.6052    8.9062 O.2     1  UNL1       -0.2704
     10 C          61.9253   88.0655   10.9759 C.3     1  UNL1        0.2199
     11 C          61.3158   86.7300   11.2840 C.3     1  UNL1        0.0579
     12 O          62.5530   87.7944   12.3111 O.3     1  UNL1       -0.4686
     13 C          66.0479   92.3727   16.0627 C.ar    1  UNL1        0.0645
     14 N          66.9936   93.3702   16.6633 N.ar    1  UNL1       -0.2183
     15 C          68.2272   93.7794   15.9144 C.ar    1  UNL1        0.2145
     16 N          69.1729   94.7769   16.5149 N.pl3   1  UNL1       -0.3274
     17 N          68.5151   93.1911   14.5649 N.ar    1  UNL1       -0.1995
     18 C          67.5694   92.1936   13.9644 C.ar    1  UNL1        0.1293
     19 N          67.8573   91.6053   12.6149 N.pl3   1  UNL1       -0.3425
     20 C          66.3358   91.7844   14.7133 C.ar    1  UNL1        0.0449
     21 H          68.9839   95.1630   17.4006 H       1  UNL1        0.1452
     22 H          69.9825   95.0455   16.0234 H       1  UNL1        0.1452
     23 H          68.6669   91.8738   12.1234 H       1  UNL1        0.1437
     24 H          67.2366   90.9506   12.2208 H       1  UNL1        0.1437
     25 C          63.6080   92.8550   16.8140 C.3     1  UNL1        0.0067
     26 C          64.8143   91.9635   16.8116 C.3     1  UNL1        0.0460
     27 C          61.0860   87.8728    9.7478 C.ar    1  UNL1        0.0264
     28 C          61.0810   86.5487    9.0430 C.ar    1  UNL1        0.0293
     29 C          60.2416   86.3560    7.8148 C.ar    1  UNL1        0.1422
     30 F          60.2367   85.0318    7.1100 F       1  UNL1       -0.2041
     31 C          59.4073   87.4873    7.2915 C.ar    1  UNL1        0.0592
     32 C          59.4123   88.8113    7.9963 C.ar    1  UNL1        0.1422
     33 F          58.5779   89.9427    7.4730 F       1  UNL1       -0.2041
     34 C          60.2516   89.0041    9.2245 C.ar    1  UNL1        0.0293
     35 C          63.5071   91.6001   10.1074 C.3     1  UNL1        0.1010
     36 C          64.9179   92.1079   10.0635 C.3     1  UNL1        0.0539
     37 C          65.2639   93.4175   10.7078 C.3     1  UNL1        0.1440
     38 O          66.6973   93.8480   10.8090 O.3     1  UNL1       -0.3510
     39 C          67.5229   94.0044    9.5666 C.3     1  UNL1        0.1741
@<TRIPOS>BOND
     1    25    26    1
     2    26    13    1
     3    13    14   ar
     4    14    15   ar
     5    15    16    1
     6    15    17   ar
     7    17    18   ar
     8    18    19    1
     9    18    20   ar
    10    20     1    1
    11     1     2   ar
    12     2     3   ar
    13     3     4   ar
    14     4     5   ar
    15     5     6   ar
    16     5     7    1
    17     7    35    1
    18    35    36    1
    19    36    37    1
    20    37    38    1
    21    38    39    1
    22     7     8   am
    23     8     9    2
    24     8    10    1
    25    10    11    1
    26    10    27    1
    27    27    28   ar
    28    28    29   ar
    29    29    30    1
    30    29    31   ar
    31    31    32   ar
    32    32    33    1
    33    32    34   ar
    34    10    12    1
    35    20    13   ar
    36     6     1   ar
    37    34    27   ar
    38    12     4    1
    39    16    21    1
    40    16    22    1
    41    19    23    1
    42    19    24    1
@<TRIPOS>MOLECULE
*****
 39 42 0 0 0
SMALL
GASTEIGER

@<TRIPOS>ATOM
      1 C          62.7705   84.0258   11.6926 C.ar    1  UNL1        0.0053
      2 C          62.0358   84.8453   10.6735 C.ar    1  UNL1        0.0033
      3 C          62.0548   86.3427   10.7601 C.ar    1  UNL1        0.0382
      4 C          62.8084   87.0205   11.8658 C.ar    1  UNL1        0.1529
      5 C          63.5431   86.2009   12.8849 C.ar    1  UNL1        0.0881
      6 C          63.5241   84.7036   12.7983 C.ar    1  UNL1        0.0181
      7 N          64.2967   86.8787   13.9906 N.am    1  UNL1       -0.2528
      8 C          64.3157   88.3761   14.0773 C.2     1  UNL1        0.2697
      9 O          65.0693   89.0539   15.1830 O.2     1  UNL1       -0.2704
     10 C          63.5810   89.1957   13.0582 C.3     1  UNL1        0.2199
     11 C          63.0432   90.3954   12.3359 C.3     1  UNL1        0.0579
     12 O          62.8274   88.5179   11.9524 O.3     1  UNL1       -0.4686
     13 C          62.1800   81.7192   12.7323 C.ar    1  UNL1        0.0645
     14 N          62.1610   80.2218   12.6457 N.ar    1  UNL1       -0.2183
     15 C          62.7136   79.5336   11.4328 C.ar    1  UNL1        0.2145
     16 N          62.6946   78.0362   11.3463 N.pl3   1  UNL1       -0.3274
     17 N          63.2851   80.3428   10.3065 N.ar    1  UNL1       -0.1995
     18 C          63.3040   81.8402   10.3931 C.ar    1  UNL1        0.1293
     19 N          63.8756   82.6494    9.2668 N.pl3   1  UNL1       -0.3425
     20 C          62.7515   82.5284   11.6060 C.ar    1  UNL1        0.0449
     21 H          62.3195   77.5051   12.0855 H       1  UNL1        0.1452
     22 H          63.0572   77.5845   10.5502 H       1  UNL1        0.1452
     23 H          64.2382   82.1977    8.4707 H       1  UNL1        0.1437
     24 H          63.8880   83.6322    9.3236 H       1  UNL1        0.1437
     25 C          62.4877   82.5915   15.1602 C.3     1  UNL1        0.0067
     26 C          61.6274   82.4074   13.9452 C.3     1  UNL1        0.0460
     27 C          64.1479   90.2901   13.9130 C.ar    1  UNL1        0.0264
     28 C          65.2452   91.1643   13.3823 C.ar    1  UNL1        0.0293
     29 C          65.8121   92.2587   14.2373 C.ar    1  UNL1        0.1422
     30 F          66.9095   93.1328   13.7064 F       1  UNL1       -0.2041
     31 C          65.2817   92.4790   15.6228 C.ar    1  UNL1        0.0592
     32 C          64.1843   91.6049   16.1536 C.ar    1  UNL1        0.1422
     33 F          63.6539   91.8252   17.5393 F       1  UNL1       -0.2041
     34 C          63.6174   90.5104   15.2987 C.ar    1  UNL1        0.0293
     35 C          65.0314   86.0592   15.0097 C.3     1  UNL1        0.1010
     36 C          64.3180   85.5716   16.2358 C.3     1  UNL1        0.0539
     37 C          62.8186   85.5733   16.2816 C.3     1  UNL1        0.1440
     38 O          62.1075   85.9364   17.5515 O.3     1  UNL1       -0.3510
     39 C          62.7120   86.9389   18.4893 C.3     1  UNL1        0.1741
@<TRIPOS>BOND
     1    25    26    1
     2    26    13    1
     3    13    14   ar
     4    14    15   ar
     5    15    16    1
     6    15    17   ar
     7    17    18   ar
     8    18    19    1
     9    18    20   ar
    10    20     1    1
    11     1     2   ar
    12     2     3   ar
    13     3     4   ar
    14     4     5   ar
    15     5     6   ar
    16     5     7    1
    17     7    35    1
    18    35    36    1
    19    36    37    1
    20    37    38    1
    21    38    39    1
    22     7     8   am
    23     8     9    2
    24     8    10    1
    25    10    11    1
    26    10    27    1
    27    27    28   ar
    28    28    29   ar
    29    29    30    1
    30    29    31   ar
    31    31    32   ar
    32    32    33    1
    33    32    34   ar
    34    10    12    1
    35    20    13   ar
    36     6     1   ar
    37    34    27   ar
    38    12     4    1
    39    16    21    1
    40    16    22    1
    41    19    23    1
    42    19    24    1
@<TRIPOS>MOLECULE
*****
 39 42 0 0 0
SMALL
GASTEIGER

@<TRIPOS>ATOM
      1 C          64.1226   89.5641   13.3684 C.ar    1  UNL1        0.0053
      2 C          64.2041   89.5274   14.8657 C.ar    1  UNL1        0.0033
      3 C          63.9318   88.2484   15.6005 C.ar    1  UNL1        0.0382
      4 C          63.5781   87.0060   14.8379 C.ar    1  UNL1        0.1529
      5 C          63.4966   87.0427   13.3406 C.ar    1  UNL1        0.0881
      6 C          63.7689   88.3218   12.6058 C.ar    1  UNL1        0.0181
      7 N          63.1428   85.8004   12.5781 N.am    1  UNL1       -0.2528
      8 C          62.8705   84.5214   13.3128 C.2     1  UNL1        0.2697
      9 O          62.5168   83.2791   12.5503 O.2     1  UNL1       -0.2704
     10 C          62.9520   84.4847   14.8102 C.3     1  UNL1        0.2199
     11 C          62.9049   83.9523   16.2118 C.3     1  UNL1        0.0579
     12 O          63.3058   85.7270   15.5728 O.3     1  UNL1       -0.4686
     13 C          65.3696   91.8366   13.1930 C.ar    1  UNL1        0.0645
     14 N          65.6420   93.1156   12.4582 N.ar    1  UNL1       -0.2183
     15 C          64.9396   93.4012   11.1639 C.ar    1  UNL1        0.2145
     16 N          65.2119   94.6802   10.4292 N.pl3   1  UNL1       -0.3274
     17 N          63.9649   92.4078   10.6045 N.ar    1  UNL1       -0.1995
     18 C          63.6926   91.1287   11.3393 C.ar    1  UNL1        0.1293
     19 N          62.7179   90.1352   10.7799 N.pl3   1  UNL1       -0.3425
     20 C          64.3949   90.8431   12.6335 C.ar    1  UNL1        0.0449
     21 H          65.8516   95.3323   10.7964 H       1  UNL1        0.1452
     22 H          64.7509   94.8677    9.5797 H       1  UNL1        0.1452
     23 H          62.2569   90.3227    9.9304 H       1  UNL1        0.1437
     24 H          62.5391   89.2958   11.2621 H       1  UNL1        0.1437
     25 C          67.5422   91.8184   14.6177 C.3     1  UNL1        0.0067
     26 C          66.0720   91.5510   14.4873 C.3     1  UNL1        0.0460
     27 C          62.5819   83.0575   14.5344 C.ar    1  UNL1        0.0264
     28 C          61.1381   82.6547   14.4772 C.ar    1  UNL1        0.0293
     29 C          60.7680   81.2274   14.2014 C.ar    1  UNL1        0.1422
     30 F          59.3242   80.8247   14.1442 F       1  UNL1       -0.2041
     31 C          61.8416   80.2030   13.9828 C.ar    1  UNL1        0.0592
     32 C          63.2854   80.6058   14.0400 C.ar    1  UNL1        0.1422
     33 F          64.3591   79.5813   13.8215 F       1  UNL1       -0.2041
     34 C          63.6556   82.0330   14.3158 C.ar    1  UNL1        0.0293
     35 C          63.0614   85.8371   11.0808 C.3     1  UNL1        0.1010
     36 C          62.7256   84.5904   10.3171 C.3     1  UNL1        0.0539
     37 C          63.7989   83.8581    9.5675 C.3     1  UNL1        0.1440
     38 O          64.4638   82.6639   10.1854 O.3     1  UNL1       -0.3510
     39 C          63.6967   81.3874   10.3645 C.3     1  UNL1        0.1741
@<TRIPOS>BOND
     1    25    26    1
     2    26    13    1
     3    13    14   ar
     4    14    15   ar
     5    15    16    1
     6    15    17   ar
     7    17    18   ar
     8    18    19    1
     9    18    20   ar
    10    20     1    1
    11     1     2   ar
    12     2     3   ar
    13     3     4   ar
    14     4     5   ar
    15     5     6   ar
    16     5     7    1
    17     7    35    1
    18    35    36    1
    19    36    37    1
    20    37    38    1
    21    38    39    1
    22     7     8   am
    23     8     9    2
    24     8    10    1
    25    10    11    1
    26    10    27    1
    27    27    28   ar
    28    28    29   ar
    29    29    30    1
    30    29    31   ar
    31    31    32   ar
    32    32    33    1
    33    32    34   ar
    34    10    12    1
    35    20    13   ar
    36     6     1   ar
    37    34    27   ar
    38    12     4    1
    39    16    21    1
    40    16    22    1
    41    19    23    1
    42    19    24    1
@<TRIPOS>MOLECULE
*****
 39 42 0 0 0
SMALL
GASTEIGER

@<TRIPOS>ATOM
      1 C          63.9241   89.1509   14.3138 C.ar    1  UNL1        0.0053
      2 C          64.3527   87.7721   14.7201 C.ar    1  UNL1        0.0033
      3 C          64.1138   86.6111   13.8009 C.ar    1  UNL1        0.0382
      4 C          63.4464   86.8289   12.4754 C.ar    1  UNL1        0.1529
      5 C          63.0178   88.2077   12.0690 C.ar    1  UNL1        0.0881
      6 C          63.2566   89.3687   12.9882 C.ar    1  UNL1        0.0181
      7 N          62.3503   88.4255   10.7435 N.am    1  UNL1       -0.2528
      8 C          62.1115   87.2645    9.8243 C.2     1  UNL1        0.2697
      9 O          61.4440   87.4822    8.4987 O.2     1  UNL1       -0.2704
     10 C          62.5401   85.8856   10.2306 C.3     1  UNL1        0.2199
     11 C          62.7639   84.4036   10.1692 C.3     1  UNL1        0.0579
     12 O          63.2075   85.6678   11.5562 O.3     1  UNL1       -0.4686
     13 C          65.2455   91.3032   14.9236 C.ar    1  UNL1        0.0645
     14 N          65.4844   92.4642   15.8427 N.ar    1  UNL1       -0.2183
     15 C          64.6406   92.6342   17.0713 C.ar    1  UNL1        0.2145
     16 N          64.8795   93.7953   17.9904 N.pl3   1  UNL1       -0.3274
     17 N          63.5581   91.6431   17.3807 N.ar    1  UNL1       -0.1995
     18 C          63.3192   90.4820   16.4615 C.ar    1  UNL1        0.1293
     19 N          62.2367   89.4908   16.7708 N.pl3   1  UNL1       -0.3425
     20 C          64.1629   90.3120   15.2330 C.ar    1  UNL1        0.0449
     21 H          65.5900   94.4458   17.7874 H       1  UNL1        0.1452
     22 H          64.3258   93.9068   18.7967 H       1  UNL1        0.1452
     23 H          61.6829   89.6024   17.5771 H       1  UNL1        0.1437
     24 H          62.0799   88.7288   16.1676 H       1  UNL1        0.1437
     25 C          67.3706   91.9000   13.5532 C.3     1  UNL1        0.0067
     26 C          66.0892   91.1332   13.6950 C.3     1  UNL1        0.0460
     27 C          61.9504   85.5887    8.8838 C.ar    1  UNL1        0.0264
     28 C          62.7977   84.9642    7.8152 C.ar    1  UNL1        0.0293
     29 C          62.2079   84.6673    6.4683 C.ar    1  UNL1        0.1422
     30 F          63.0554   84.0427    5.3997 F       1  UNL1       -0.2041
     31 C          60.7709   84.9949    6.1900 C.ar    1  UNL1        0.0592
     32 C          59.9236   85.6195    7.2586 C.ar    1  UNL1        0.1422
     33 F          58.4865   85.9471    6.9803 F       1  UNL1       -0.2041
     34 C          60.5133   85.9164    8.6055 C.ar    1  UNL1        0.0293
     35 C          61.9217   89.8043   10.3371 C.3     1  UNL1        0.1010
     36 C          60.4654   90.1136   10.1542 C.3     1  UNL1        0.0539
     37 C          59.7246   90.8846   11.2063 C.3     1  UNL1        0.1440
     38 O          58.6361   90.2202   11.9961 O.3     1  UNL1       -0.3510
     39 C          58.9063   88.9254   12.7036 C.3     1  UNL1        0.1741
@<TRIPOS>BOND
     1    25    26    1
     2    26    13    1
     3    13    14   ar
     4    14    15   ar
     5    15    16    1
     6    15    17   ar
     7    17    18   ar
     8    18    19    1
     9    18    20   ar
    10    20     1    1
    11     1     2   ar
    12     2     3   ar
    13     3     4   ar
    14     4     5   ar
    15     5     6   ar
    16     5     7    1
    17     7    35    1
    18    35    36    1
    19    36    37    1
    20    37    38    1
    21    38    39    1
    22     7     8   am
    23     8     9    2
    24     8    10    1
    25    10    11    1
    26    10    27    1
    27    27    28   ar
    28    28    29   ar
    29    29    30    1
    30    29    31   ar
    31    31    32   ar
    32    32    33    1
    33    32    34   ar
    34    10    12    1
    35    20    13   ar
    36     6     1   ar
    37    34    27   ar
    38    12     4    1
    39    16    21    1
    40    16    22    1
    41    19    23    1
    42    19    24    1
@<TRIPOS>MOLECULE
*****
 39 42 0 0 0
SMALL
GASTEIGER

@<TRIPOS>ATOM
      1 C          62.3205   86.1997   10.3322 C.ar    1  UNL1        0.0053
      2 C          62.3685   85.2780   11.5146 C.ar    1  UNL1        0.0033
      3 C          62.8106   85.7954   12.8513 C.ar    1  UNL1        0.0382
      4 C          63.2047   87.2344   13.0056 C.ar    1  UNL1        0.1529
      5 C          63.1567   88.1561   11.8232 C.ar    1  UNL1        0.0881
      6 C          62.7146   87.6387   10.4865 C.ar    1  UNL1        0.0181
      7 N          63.5508   89.5951   11.9775 N.am    1  UNL1       -0.2528
      8 C          63.9929   90.1125   13.3142 C.2     1  UNL1        0.2697
      9 O          64.3870   91.5516   13.4684 O.2     1  UNL1       -0.2704
     10 C          64.0409   89.1908   14.4967 C.3     1  UNL1        0.2199
     11 C          64.2511   88.7110   15.9022 C.3     1  UNL1        0.0579
     12 O          63.6468   87.7518   14.3424 O.3     1  UNL1       -0.4686
     13 C          62.7352   84.7027    8.2495 C.ar    1  UNL1        0.0645
     14 N          62.2932   84.1854    6.9128 N.ar    1  UNL1       -0.2183
     15 C          60.9942   84.6476    6.3219 C.ar    1  UNL1        0.2145
     16 N          60.5522   84.1302    4.9851 N.pl3   1  UNL1       -0.3274
     17 N          60.1374   85.6271    7.0677 N.ar    1  UNL1       -0.1995
     18 C          60.5795   86.1445    8.4045 C.ar    1  UNL1        0.1293
     19 N          59.7226   87.1240    9.1503 N.pl3   1  UNL1       -0.3425
     20 C          61.8784   85.6823    8.9954 C.ar    1  UNL1        0.0449
     21 H          61.1146   83.4873    4.4956 H       1  UNL1        0.1452
     22 H          59.6997   84.4336    4.5973 H       1  UNL1        0.1452
     23 H          58.8701   87.4274    8.7625 H       1  UNL1        0.1437
     24 H          60.0128   87.4636   10.0277 H       1  UNL1        0.1437
     25 C          64.0545   83.0828    9.7940 C.3     1  UNL1        0.0067
     26 C          64.0342   84.2405    8.8405 C.3     1  UNL1        0.0460
     27 C          64.5080   90.4632   15.1391 C.ar    1  UNL1        0.0264
     28 C          65.9113   90.9442   14.9172 C.ar    1  UNL1        0.0293
     29 C          66.3784   92.2167   15.5597 C.ar    1  UNL1        0.1422
     30 F          67.7819   92.6976   15.3378 F       1  UNL1       -0.2041
     31 C          65.4423   93.0081   16.4239 C.ar    1  UNL1        0.0592
     32 C          64.0389   92.5272   16.6458 C.ar    1  UNL1        0.1422
     33 F          63.1026   93.3187   17.5100 F       1  UNL1       -0.2041
     34 C          63.5717   91.2547   16.0034 C.ar    1  UNL1        0.0293
     35 C          63.5028   90.5168   10.7950 C.3     1  UNL1        0.1010
     36 C          62.2029   90.7630   10.0883 C.3     1  UNL1        0.0539
     37 C          60.9277   90.8529   10.8732 C.3     1  UNL1        0.1440
     38 O          59.9654   89.7023   10.8748 O.3     1  UNL1       -0.3510
     39 C          59.3708   89.2236   12.1660 C.3     1  UNL1        0.1741
@<TRIPOS>BOND
     1    25    26    1
     2    26    13    1
     3    13    14   ar
     4    14    15   ar
     5    15    16    1
     6    15    17   ar
     7    17    18   ar
     8    18    19    1
     9    18    20   ar
    10    20     1    1
    11     1     2   ar
    12     2     3   ar
    13     3     4   ar
    14     4     5   ar
    15     5     6   ar
    16     5     7    1
    17     7    35    1
    18    35    36    1
    19    36    37    1
    20    37    38    1
    21    38    39    1
    22     7     8   am
    23     8     9    2
    24     8    10    1
    25    10    11    1
    26    10    27    1
    27    27    28   ar
    28    28    29   ar
    29    29    30    1
    30    29    31   ar
    31    31    32   ar
    32    32    33    1
    33    32    34   ar
    34    10    12    1
    35    20    13   ar
    36     6     1   ar
    37    34    27   ar
    38    12     4    1
    39    16    21    1
    40    16    22    1
    41    19    23    1
    42    19    24    1
