@<TRIPOS>MOLECULE
*****
 41 46 0 0 0
SMALL
GASTEIGER

@<TRIPOS>ATOM
      1 N          63.2412   90.6215   13.7512 N.3     1  UNL1       -0.2641
      2 C          64.3575   91.3706   13.0857 C.3     1  UNL1        0.0981
      3 C          64.3958   91.4872   11.5907 C.3     1  UNL1        0.0224
      4 C          65.5121   92.2363   10.9252 C.3     1  UNL1        0.0065
      5 C          66.5900   92.8687   11.7547 C.3     1  UNL1        0.0277
      6 C          66.5517   92.7521   13.2496 C.ar    1  UNL1       -0.0073
      7 C          67.6297   93.3845   14.0792 C.ar    1  UNL1       -0.0015
      8 C          67.5914   93.2679   15.5741 C.ar    1  UNL1        0.0203
      9 C          66.4751   92.5188   16.2396 C.ar    1  UNL1        0.0985
     10 N          65.3972   91.8864   15.4101 N.ar    1  UNL1       -0.2471
     11 C          65.4354   92.0030   13.9151 C.ar    1  UNL1        0.0695
     12 C          63.4224   90.0829   15.1393 C.3     1  UNL1        0.0994
     13 C          63.9936   85.6659   15.7822 C.ar    1  UNL1       -0.0064
     14 C          63.1912   86.4689   16.7627 C.ar    1  UNL1       -0.0032
     15 C          63.0008   87.9413   16.5485 C.ar    1  UNL1       -0.0032
     16 C          63.6128   88.6106   15.3536 C.ar    1  UNL1       -0.0062
     17 C          64.4151   87.8075   14.3731 C.ar    1  UNL1       -0.0032
     18 C          64.6055   86.3352   14.5874 C.ar    1  UNL1       -0.0032
     19 C          64.1840   84.1935   15.9965 C.3     1  UNL1        0.0956
     20 N          63.1987   83.2185   15.4230 N.3     1  UNL1       -0.2948
     21 H          63.2537   82.3746   15.9931 H       1  UNL1        0.1235
     22 F          63.0636   80.8395   10.2111 F       1  UNL1       -0.2043
     23 C          63.5627   81.9133   11.1318 C.3     1  UNL1        0.2640
     24 F          64.2477   82.3206    9.8610 F       1  UNL1       -0.2043
     25 C          64.2997   83.1287   11.6111 C.3     1  UNL1        0.0679
     26 C          64.1784   83.5638   13.0415 C.3     1  UNL1        0.0213
     27 C          63.3201   82.7835   13.9926 C.3     1  UNL1        0.0546
     28 C          62.5831   81.5682   13.5132 C.3     1  UNL1        0.0213
     29 C          62.7044   81.1331   12.0828 C.3     1  UNL1        0.0679
     30 C          61.9438   90.4111   13.0285 C.3     1  UNL1        0.0888
     31 C          61.8192   89.3119   12.0154 C.3     1  UNL1        0.0748
     32 C          60.8670   89.4561   10.8655 C.3     1  UNL1        0.0432
     33 C          60.7424   88.3568    9.8524 C.ar    1  UNL1       -0.0234
     34 C          59.7902   88.5011    8.7025 C.ar    1  UNL1       -0.0045
     35 C          59.6657   87.4018    7.6895 C.ar    1  UNL1       -0.0003
     36 C          60.4934   86.1584    7.8265 C.ar    1  UNL1       -0.0003
     37 C          61.4456   86.0142    8.9764 C.ar    1  UNL1       -0.0032
     38 C          61.5701   87.1134    9.9894 C.ar    1  UNL1       -0.0103
     39 C          62.5224   86.9692   11.1394 C.3     1  UNL1        0.0953
     40 N          62.6469   88.0684   12.1524 N.3     1  UNL1       -0.2934
     41 H          63.6235   88.3629   12.1488 H       1  UNL1        0.1236
@<TRIPOS>BOND
     1    22    23    1
     2    23    24    1
     3    23    25    1
     4    25    26    1
     5    26    27    1
     6    27    20    1
     7    20    19    1
     8    19    13    1
     9    13    14   ar
    10    14    15   ar
    11    15    16   ar
    12    16    12    1
    13    12     1    1
    14     1    30    1
    15    31    30    1
    16    31    32    1
    17    32    33    1
    18    33    34   ar
    19    34    35   ar
    20    35    36   ar
    21    36    37   ar
    22    37    38   ar
    23    38    39    1
    24    39    40    1
    25     2     1    1
    26     2     3    1
    27     3     4    1
    28     4     5    1
    29     5     6    1
    30     6     7   ar
    31     7     8   ar
    32     8     9   ar
    33     9    10   ar
    34    10    11   ar
    35    16    17   ar
    36    17    18   ar
    37    27    28    1
    38    28    29    1
    39    29    23    1
    40    18    13   ar
    41    40    31    1
    42    11     2    1
    43    38    33   ar
    44    11     6   ar
    45    20    21    1
    46    40    41    1
@<TRIPOS>MOLECULE
*****
 41 46 0 0 0
SMALL
GASTEIGER

@<TRIPOS>ATOM
      1 N          63.8405   90.6527   14.3687 N.3     1  UNL1       -0.2641
      2 C          65.2286   91.1560   14.1044 C.3     1  UNL1        0.0981
      3 C          66.2884   91.0214   15.1573 C.3     1  UNL1        0.0224
      4 C          67.6765   91.5247   14.8930 C.3     1  UNL1        0.0065
      5 C          68.0048   92.1626   13.5757 C.3     1  UNL1        0.0277
      6 C          66.9451   92.2972   12.5227 C.ar    1  UNL1       -0.0073
      7 C          67.2734   92.9351   11.2054 C.ar    1  UNL1       -0.0015
      8 C          66.2136   93.0697   10.1524 C.ar    1  UNL1        0.0203
      9 C          64.8255   92.5664   10.4168 C.ar    1  UNL1        0.0985
     10 N          64.4972   91.9285   11.7340 N.ar    1  UNL1       -0.2471
     11 C          65.5570   91.7939   12.7871 C.ar    1  UNL1        0.0695
     12 C          63.5268   89.9625   15.6629 C.3     1  UNL1        0.0994
     13 C          63.8517   85.4841   15.9610 C.ar    1  UNL1       -0.0064
     14 C          62.9806   86.2385   16.9214 C.ar    1  UNL1       -0.0032
     15 C          62.8723   87.7313   16.8220 C.ar    1  UNL1       -0.0032
     16 C          63.6351   88.4697   15.7623 C.ar    1  UNL1       -0.0062
     17 C          64.5061   87.7153   14.8019 C.ar    1  UNL1       -0.0032
     18 C          64.6144   86.2225   14.9013 C.ar    1  UNL1       -0.0032
     19 C          63.9600   83.9913   16.0603 C.3     1  UNL1        0.0956
     20 N          62.9293   83.1194   15.4064 N.3     1  UNL1       -0.2948
     21 H          62.8774   82.2618   15.9562 H       1  UNL1        0.1235
     22 F          64.0473   82.3745    9.8353 F       1  UNL1       -0.2043
     23 C          63.4299   81.8796   11.1096 C.3     1  UNL1        0.2640
     24 F          63.0681   80.7515   10.1895 F       1  UNL1       -0.2043
     25 C          62.6868   80.9929   12.0644 C.3     1  UNL1        0.0679
     26 C          62.5199   81.4061   13.4966 C.3     1  UNL1        0.0213
     27 C          63.0962   82.7062   13.9741 C.3     1  UNL1        0.0546
     28 C          63.8392   83.5928   13.0194 C.3     1  UNL1        0.0213
     29 C          64.0061   83.1796   11.5871 C.3     1  UNL1        0.0679
     30 C          62.7662   90.8396   13.3388 C.3     1  UNL1        0.0888
     31 C          62.4479   89.7329   12.3775 C.3     1  UNL1        0.0748
     32 C          61.4537   89.9580   11.2772 C.3     1  UNL1        0.0432
     33 C          61.1355   88.8512   10.3159 C.ar    1  UNL1       -0.0234
     34 C          60.1413   89.0763    9.2155 C.ar    1  UNL1       -0.0045
     35 C          59.8231   87.9696    8.2544 C.ar    1  UNL1       -0.0003
     36 C          60.4990   86.6378    8.3936 C.ar    1  UNL1       -0.0003
     37 C          61.4932   86.4127    9.4940 C.ar    1  UNL1       -0.0032
     38 C          61.8114   87.5194   10.4551 C.ar    1  UNL1       -0.0103
     39 C          62.8056   87.2944   11.5556 C.3     1  UNL1        0.0953
     40 N          63.1239   88.4011   12.5168 N.3     1  UNL1       -0.2934
     41 H          64.1272   88.5715   12.4479 H       1  UNL1        0.1236
@<TRIPOS>BOND
     1    22    23    1
     2    23    24    1
     3    23    25    1
     4    25    26    1
     5    26    27    1
     6    27    20    1
     7    20    19    1
     8    19    13    1
     9    13    14   ar
    10    14    15   ar
    11    15    16   ar
    12    16    12    1
    13    12     1    1
    14     1    30    1
    15    31    30    1
    16    31    32    1
    17    32    33    1
    18    33    34   ar
    19    34    35   ar
    20    35    36   ar
    21    36    37   ar
    22    37    38   ar
    23    38    39    1
    24    39    40    1
    25     2     1    1
    26     2     3    1
    27     3     4    1
    28     4     5    1
    29     5     6    1
    30     6     7   ar
    31     7     8   ar
    32     8     9   ar
    33     9    10   ar
    34    10    11   ar
    35    16    17   ar
    36    17    18   ar
    37    27    28    1
    38    28    29    1
    39    29    23    1
    40    18    13   ar
    41    40    31    1
    42    11     2    1
    43    38    33   ar
    44    11     6   ar
    45    20    21    1
    46    40    41    1
@<TRIPOS>MOLECULE
*****
 41 46 0 0 0
SMALL
GASTEIGER

@<TRIPOS>ATOM
      1 N          61.9449   87.4884   11.2697 N.3     1  UNL1       -0.2641
      2 C          61.0627   87.2262   10.0852 C.3     1  UNL1        0.0981
      3 C          59.7019   87.8528   10.0102 C.3     1  UNL1        0.0224
      4 C          58.8197   87.5906    8.8258 C.3     1  UNL1        0.0065
      5 C          59.2983   86.7018    7.7163 C.3     1  UNL1        0.0277
      6 C          60.6590   86.0753    7.7913 C.ar    1  UNL1       -0.0073
      7 C          61.1376   85.1864    6.6817 C.ar    1  UNL1       -0.0015
      8 C          62.4984   84.5598    6.7567 C.ar    1  UNL1        0.0203
      9 C          63.3806   84.8220    7.9412 C.ar    1  UNL1        0.0985
     10 N          62.9021   85.7108    9.0507 N.ar    1  UNL1       -0.2471
     11 C          61.5412   86.3374    8.9757 C.ar    1  UNL1        0.0695
     12 C          61.6875   88.6766   12.1482 C.3     1  UNL1        0.0994
     13 C          64.9932   91.6118   12.9887 C.ar    1  UNL1       -0.0064
     14 C          64.6512   90.5577   13.9997 C.ar    1  UNL1       -0.0032
     15 C          63.5492   89.5793   13.7195 C.ar    1  UNL1       -0.0032
     16 C          62.7894   89.6550   12.4284 C.ar    1  UNL1       -0.0062
     17 C          63.1315   90.7090   11.4175 C.ar    1  UNL1       -0.0032
     18 C          64.2334   91.6874   11.6977 C.ar    1  UNL1       -0.0032
     19 C          66.0952   92.5902   13.2689 C.3     1  UNL1        0.0956
     20 N          65.9147   94.0403   12.9302 N.3     1  UNL1       -0.2948
     21 H          64.9198   94.2436   13.0267 H       1  UNL1        0.1235
     22 F          67.1756   96.8540    8.0996 F       1  UNL1       -0.2043
     23 C          67.1699   95.5809    8.8927 C.3     1  UNL1        0.2640
     24 F          67.8051   95.0945    7.6239 F       1  UNL1       -0.2043
     25 C          67.3848   94.1388    9.2452 C.3     1  UNL1        0.0679
     26 C          66.9664   93.6252   10.5910 C.3     1  UNL1        0.0213
     27 C          66.3331   94.5538   11.5844 C.3     1  UNL1        0.0546
     28 C          66.1182   95.9959   11.2319 C.3     1  UNL1        0.0213
     29 C          66.5366   96.5094    9.8861 C.3     1  UNL1        0.0679
     30 C          63.0845   86.5624   11.5756 C.3     1  UNL1        0.0888
     31 C          62.8260   85.2598   12.2732 C.3     1  UNL1        0.0748
     32 C          63.0080   83.9657   11.5369 C.3     1  UNL1        0.0432
     33 C          62.7495   82.6631   12.2345 C.ar    1  UNL1       -0.0234
     34 C          62.9315   81.3690   11.4982 C.ar    1  UNL1       -0.0045
     35 C          62.6730   80.0665   12.1957 C.ar    1  UNL1       -0.0003
     36 C          62.2325   80.0581   13.6296 C.ar    1  UNL1       -0.0003
     37 C          62.0505   81.3522   14.3659 C.ar    1  UNL1       -0.0032
     38 C          62.3090   82.6547   13.6683 C.ar    1  UNL1       -0.0103
     39 C          62.1270   83.9489   14.4046 C.3     1  UNL1        0.0953
     40 N          62.3856   85.2514   13.7070 N.3     1  UNL1       -0.2934
     41 H          63.1098   85.7324   14.2404 H       1  UNL1        0.1236
@<TRIPOS>BOND
     1    22    23    1
     2    23    24    1
     3    23    25    1
     4    25    26    1
     5    26    27    1
     6    27    20    1
     7    20    19    1
     8    19    13    1
     9    13    14   ar
    10    14    15   ar
    11    15    16   ar
    12    16    12    1
    13    12     1    1
    14     1    30    1
    15    31    30    1
    16    31    32    1
    17    32    33    1
    18    33    34   ar
    19    34    35   ar
    20    35    36   ar
    21    36    37   ar
    22    37    38   ar
    23    38    39    1
    24    39    40    1
    25     2     1    1
    26     2     3    1
    27     3     4    1
    28     4     5    1
    29     5     6    1
    30     6     7   ar
    31     7     8   ar
    32     8     9   ar
    33     9    10   ar
    34    10    11   ar
    35    16    17   ar
    36    17    18   ar
    37    27    28    1
    38    28    29    1
    39    29    23    1
    40    18    13   ar
    41    40    31    1
    42    11     2    1
    43    38    33   ar
    44    11     6   ar
    45    20    21    1
    46    40    41    1
@<TRIPOS>MOLECULE
*****
 41 46 0 0 0
SMALL
GASTEIGER

@<TRIPOS>ATOM
      1 N          61.7216   87.2240   11.5262 N.3     1  UNL1       -0.2641
      2 C          62.3768   86.0421   10.8750 C.3     1  UNL1        0.0981
      3 C          62.6282   86.0444    9.3962 C.3     1  UNL1        0.0224
      4 C          63.2833   84.8626    8.7450 C.3     1  UNL1        0.0065
      5 C          63.6870   83.6785    9.5726 C.3     1  UNL1        0.0277
      6 C          63.4356   83.6762   11.0513 C.ar    1  UNL1       -0.0073
      7 C          63.8393   82.4921   11.8790 C.ar    1  UNL1       -0.0015
      8 C          63.5879   82.4898   13.3577 C.ar    1  UNL1        0.0203
      9 C          62.9328   83.6717   14.0089 C.ar    1  UNL1        0.0985
     10 N          62.5291   84.8557   13.1814 N.ar    1  UNL1       -0.2471
     11 C          62.7805   84.8580   11.7025 C.ar    1  UNL1        0.0695
     12 C          60.3114   87.5904   11.1700 C.3     1  UNL1        0.0994
     13 C          59.3810   89.2604    7.0962 C.ar    1  UNL1       -0.0064
     14 C          59.0948   87.8194    7.3994 C.ar    1  UNL1       -0.0032
     15 C          59.4049   87.2628    8.7573 C.ar    1  UNL1       -0.0032
     16 C          60.0013   88.1471    9.8120 C.ar    1  UNL1       -0.0062
     17 C          60.2875   89.5879    9.5089 C.ar    1  UNL1       -0.0032
     18 C          59.9774   90.1446    8.1509 C.ar    1  UNL1       -0.0032
     19 C          59.0709   89.8170    5.7383 C.3     1  UNL1        0.0956
     20 N          59.2380   91.2840    5.4730 N.3     1  UNL1       -0.2948
     21 H          58.3151   91.6471    5.2346 H       1  UNL1        0.1235
     22 F          63.4531   92.4406    1.7666 F       1  UNL1       -0.2043
     23 C          62.0552   92.6817    2.2544 C.3     1  UNL1        0.2640
     24 F          62.0962   93.6367    1.0983 F       1  UNL1       -0.2043
     25 C          60.6716   93.2545    2.3406 C.3     1  UNL1        0.0679
     26 C          59.7325   92.7886    3.4135 C.3     1  UNL1        0.0213
     27 C          60.1771   91.7499    4.4001 C.3     1  UNL1        0.0546
     28 C          61.5607   91.1771    4.3139 C.3     1  UNL1        0.0213
     29 C          62.4998   91.6430    3.2410 C.3     1  UNL1        0.0679
     30 C          62.4767   88.0394   12.5336 C.3     1  UNL1        0.0888
     31 C          63.1488   89.3135   12.1152 C.3     1  UNL1        0.0748
     32 C          64.0436   90.0397   13.0754 C.3     1  UNL1        0.0432
     33 C          64.7157   91.3139   12.6570 C.ar    1  UNL1       -0.0234
     34 C          65.6105   92.0401   13.6172 C.ar    1  UNL1       -0.0045
     35 C          66.2825   93.3142   13.1988 C.ar    1  UNL1       -0.0003
     36 C          66.0598   93.8620   11.8203 C.ar    1  UNL1       -0.0003
     37 C          65.1650   93.1358   10.8602 C.ar    1  UNL1       -0.0032
     38 C          64.4929   91.8617   11.2785 C.ar    1  UNL1       -0.0103
     39 C          63.5981   91.1355   10.3184 C.3     1  UNL1        0.0953
     40 N          62.9261   89.8614   10.7367 N.3     1  UNL1       -0.2934
     41 H          63.2275   89.1405   10.0811 H       1  UNL1        0.1236
@<TRIPOS>BOND
     1    22    23    1
     2    23    24    1
     3    23    25    1
     4    25    26    1
     5    26    27    1
     6    27    20    1
     7    20    19    1
     8    19    13    1
     9    13    14   ar
    10    14    15   ar
    11    15    16   ar
    12    16    12    1
    13    12     1    1
    14     1    30    1
    15    31    30    1
    16    31    32    1
    17    32    33    1
    18    33    34   ar
    19    34    35   ar
    20    35    36   ar
    21    36    37   ar
    22    37    38   ar
    23    38    39    1
    24    39    40    1
    25     2     1    1
    26     2     3    1
    27     3     4    1
    28     4     5    1
    29     5     6    1
    30     6     7   ar
    31     7     8   ar
    32     8     9   ar
    33     9    10   ar
    34    10    11   ar
    35    16    17   ar
    36    17    18   ar
    37    27    28    1
    38    28    29    1
    39    29    23    1
    40    18    13   ar
    41    40    31    1
    42    11     2    1
    43    38    33   ar
    44    11     6   ar
    45    20    21    1
    46    40    41    1
@<TRIPOS>MOLECULE
*****
 41 46 0 0 0
SMALL
GASTEIGER

@<TRIPOS>ATOM
      1 N          62.0411   87.3304   11.0367 N.3     1  UNL1       -0.2641
      2 C          61.0889   87.0622    9.9091 C.3     1  UNL1        0.0981
      3 C          59.7131   87.6594    9.9311 C.3     1  UNL1        0.0224
      4 C          58.7609   87.3911    8.8036 C.3     1  UNL1        0.0065
      5 C          59.1845   86.5256    7.6541 C.3     1  UNL1        0.0277
      6 C          60.5603   85.9284    7.6321 C.ar    1  UNL1       -0.0073
      7 C          60.9839   85.0629    6.4825 C.ar    1  UNL1       -0.0015
      8 C          62.3597   84.4657    6.4605 C.ar    1  UNL1        0.0203
      9 C          63.3119   84.7339    7.5880 C.ar    1  UNL1        0.0985
     10 N          62.8883   85.5994    8.7375 N.ar    1  UNL1       -0.2471
     11 C          61.5125   86.1967    8.7596 C.ar    1  UNL1        0.0695
     12 C          61.8913   88.5715   11.8657 C.3     1  UNL1        0.0994
     13 C          64.4677   92.1638   11.0244 C.ar    1  UNL1       -0.0064
     14 C          63.6244   91.5736    9.9332 C.ar    1  UNL1       -0.0032
     15 C          62.7656   90.3761   10.2137 C.ar    1  UNL1       -0.0032
     16 C          62.7501   89.7689   11.5852 C.ar    1  UNL1       -0.0062
     17 C          63.5933   90.3592   12.6763 C.ar    1  UNL1       -0.0032
     18 C          64.4521   91.5566   12.3959 C.ar    1  UNL1       -0.0032
     19 C          65.3264   93.3613   10.7440 C.3     1  UNL1        0.0956
     20 N          66.7624   93.3724   11.1775 N.3     1  UNL1       -0.2948
     21 H          67.2466   92.6764   10.6104 H       1  UNL1        0.1235
     22 F          68.6848   91.5955   16.2754 F       1  UNL1       -0.2043
     23 C          67.8246   92.5206   15.4666 C.3     1  UNL1        0.2640
     24 F          67.5069   93.0107   16.8482 F       1  UNL1       -0.2043
     25 C          66.8541   93.6160   15.1376 C.3     1  UNL1        0.0679
     26 C          66.5000   93.8999   13.7079 C.3     1  UNL1        0.0213
     27 C          67.1165   93.0885   12.6072 C.3     1  UNL1        0.0546
     28 C          68.0870   91.9931   12.9362 C.3     1  UNL1        0.0213
     29 C          68.4411   91.7092   14.3659 C.3     1  UNL1        0.0679
     30 C          63.1431   86.3576   11.3352 C.3     1  UNL1        0.0888
     31 C          62.8452   85.0946   12.0877 C.3     1  UNL1        0.0748
     32 C          63.0103   83.7641   11.4150 C.3     1  UNL1        0.0432
     33 C          62.7124   82.5011   12.1674 C.ar    1  UNL1       -0.0234
     34 C          62.8775   81.1707   11.4947 C.ar    1  UNL1       -0.0045
     35 C          62.5796   79.9078   12.2472 C.ar    1  UNL1       -0.0003
     36 C          62.1166   79.9753   13.6724 C.ar    1  UNL1       -0.0003
     37 C          61.9516   81.3057   14.3451 C.ar    1  UNL1       -0.0032
     38 C          62.2495   82.5687   13.5926 C.ar    1  UNL1       -0.0103
     39 C          62.0844   83.8992   14.2653 C.3     1  UNL1        0.0953
     40 N          62.3823   85.1621   13.5129 N.3     1  UNL1       -0.2934
     41 H          63.1085   85.6519   14.0355 H       1  UNL1        0.1236
@<TRIPOS>BOND
     1    22    23    1
     2    23    24    1
     3    23    25    1
     4    25    26    1
     5    26    27    1
     6    27    20    1
     7    20    19    1
     8    19    13    1
     9    13    14   ar
    10    14    15   ar
    11    15    16   ar
    12    16    12    1
    13    12     1    1
    14     1    30    1
    15    31    30    1
    16    31    32    1
    17    32    33    1
    18    33    34   ar
    19    34    35   ar
    20    35    36   ar
    21    36    37   ar
    22    37    38   ar
    23    38    39    1
    24    39    40    1
    25     2     1    1
    26     2     3    1
    27     3     4    1
    28     4     5    1
    29     5     6    1
    30     6     7   ar
    31     7     8   ar
    32     8     9   ar
    33     9    10   ar
    34    10    11   ar
    35    16    17   ar
    36    17    18   ar
    37    27    28    1
    38    28    29    1
    39    29    23    1
    40    18    13   ar
    41    40    31    1
    42    11     2    1
    43    38    33   ar
    44    11     6   ar
    45    20    21    1
    46    40    41    1
@<TRIPOS>MOLECULE
*****
 41 46 0 0 0
SMALL
GASTEIGER

@<TRIPOS>ATOM
      1 N          62.6983   87.0836   11.5744 N.3     1  UNL1       -0.2641
      2 C          62.4440   86.4099   10.2585 C.3     1  UNL1        0.0981
      3 C          63.4135   85.3906    9.7381 C.3     1  UNL1        0.0224
      4 C          63.1592   84.7170    8.4222 C.3     1  UNL1        0.0065
      5 C          61.9354   85.0627    7.6267 C.3     1  UNL1        0.0277
      6 C          60.9659   86.0820    8.1472 C.ar    1  UNL1       -0.0073
      7 C          59.7420   86.4278    7.3518 C.ar    1  UNL1       -0.0015
      8 C          58.7725   87.4471    7.8722 C.ar    1  UNL1        0.0203
      9 C          59.0268   88.1208    9.1881 C.ar    1  UNL1        0.0985
     10 N          60.2506   87.7750    9.9835 N.ar    1  UNL1       -0.2471
     11 C          61.2202   86.7557    9.4631 C.ar    1  UNL1        0.0695
     12 C          62.2039   88.4800   11.8100 C.3     1  UNL1        0.0994
     13 C          65.0885   91.7129   13.0257 C.ar    1  UNL1       -0.0064
     14 C          64.3813   91.7963   11.7054 C.ar    1  UNL1       -0.0032
     15 C          63.4198   90.7187   11.3002 C.ar    1  UNL1       -0.0032
     16 C          63.1654   89.5576   12.2152 C.ar    1  UNL1       -0.0062
     17 C          63.8725   89.4742   13.5354 C.ar    1  UNL1       -0.0032
     18 C          64.8341   90.5519   13.9407 C.ar    1  UNL1       -0.0032
     19 C          66.0500   92.7905   13.4309 C.3     1  UNL1        0.0956
     20 N          65.8143   94.2074   12.9983 N.3     1  UNL1       -0.2948
     21 H          64.8051   94.3547   13.0094 H       1  UNL1        0.1235
     22 F          67.3448   96.8557    8.1521 F       1  UNL1       -0.2043
     23 C          67.2875   95.6088    8.9839 C.3     1  UNL1        0.2640
     24 F          67.9827   95.0776    7.7654 F       1  UNL1       -0.2043
     25 C          67.4717   94.1773    9.3925 C.3     1  UNL1        0.0679
     26 C          66.9807   93.7102   10.7306 C.3     1  UNL1        0.0213
     27 C          66.3054   94.6745   11.6602 C.3     1  UNL1        0.0546
     28 C          66.1212   96.1060   11.2516 C.3     1  UNL1        0.0213
     29 C          66.6122   96.5731    9.9134 C.3     1  UNL1        0.0679
     30 C          63.4469   86.3608   12.6547 C.3     1  UNL1        0.0888
     31 C          63.0209   84.9837   13.0699 C.3     1  UNL1        0.0748
     32 C          63.2632   83.8171   12.1588 C.3     1  UNL1        0.0432
     33 C          62.8372   82.4400   12.5740 C.ar    1  UNL1       -0.0234
     34 C          63.0794   81.2734   11.6629 C.ar    1  UNL1       -0.0045
     35 C          62.6535   79.8964   12.0781 C.ar    1  UNL1       -0.0003
     36 C          61.9853   79.6861   13.4045 C.ar    1  UNL1       -0.0003
     37 C          61.7430   80.8527   14.3156 C.ar    1  UNL1       -0.0032
     38 C          62.1690   82.2297   13.9004 C.ar    1  UNL1       -0.0103
     39 C          61.9268   83.3964   14.8115 C.3     1  UNL1        0.0953
     40 N          62.3527   84.7734   14.3963 N.3     1  UNL1       -0.2934
     41 H          63.0009   85.1085   15.1090 H       1  UNL1        0.1236
@<TRIPOS>BOND
     1    22    23    1
     2    23    24    1
     3    23    25    1
     4    25    26    1
     5    26    27    1
     6    27    20    1
     7    20    19    1
     8    19    13    1
     9    13    14   ar
    10    14    15   ar
    11    15    16   ar
    12    16    12    1
    13    12     1    1
    14     1    30    1
    15    31    30    1
    16    31    32    1
    17    32    33    1
    18    33    34   ar
    19    34    35   ar
    20    35    36   ar
    21    36    37   ar
    22    37    38   ar
    23    38    39    1
    24    39    40    1
    25     2     1    1
    26     2     3    1
    27     3     4    1
    28     4     5    1
    29     5     6    1
    30     6     7   ar
    31     7     8   ar
    32     8     9   ar
    33     9    10   ar
    34    10    11   ar
    35    16    17   ar
    36    17    18   ar
    37    27    28    1
    38    28    29    1
    39    29    23    1
    40    18    13   ar
    41    40    31    1
    42    11     2    1
    43    38    33   ar
    44    11     6   ar
    45    20    21    1
    46    40    41    1
@<TRIPOS>MOLECULE
*****
 41 46 0 0 0
SMALL
GASTEIGER

@<TRIPOS>ATOM
      1 N          63.8272   89.4973   14.8654 N.3     1  UNL1       -0.2641
      2 C          63.5154   88.3676   15.8016 C.3     1  UNL1        0.0981
      3 C          63.0256   88.6570   17.1895 C.3     1  UNL1        0.0224
      4 C          62.7138   87.5273   18.1257 C.3     1  UNL1        0.0065
      5 C          62.8917   86.1081   17.6740 C.3     1  UNL1        0.0277
      6 C          63.3815   85.8186   16.2861 C.ar    1  UNL1       -0.0073
      7 C          63.5595   84.3993   15.8343 C.ar    1  UNL1       -0.0015
      8 C          64.0493   84.1098   14.4465 C.ar    1  UNL1        0.0203
      9 C          64.3611   85.2396   13.5103 C.ar    1  UNL1        0.0985
     10 N          64.1832   86.6588   13.9620 N.ar    1  UNL1       -0.2471
     11 C          63.6933   86.9483   15.3499 C.ar    1  UNL1        0.0695
     12 C          62.7125   90.2746   14.2304 C.3     1  UNL1        0.0994
     13 C          61.1096   89.0354   10.2123 C.ar    1  UNL1       -0.0064
     14 C          62.5907   89.1041   10.4403 C.ar    1  UNL1       -0.0032
     15 C          63.1249   89.5171   11.7796 C.ar    1  UNL1       -0.0032
     16 C          62.1782   89.8615   12.8910 C.ar    1  UNL1       -0.0062
     17 C          60.6972   89.7928   12.6630 C.ar    1  UNL1       -0.0032
     18 C          60.1630   89.3797   11.3237 C.ar    1  UNL1       -0.0032
     19 C          60.5753   88.6223    8.8729 C.3     1  UNL1        0.0956
     20 N          60.3848   87.1683    8.5574 N.3     1  UNL1       -0.2948
     21 H          59.4846   86.8966    8.9528 H       1  UNL1        0.1235
     22 F          64.5573   83.3467    9.4671 F       1  UNL1       -0.2043
     23 C          63.3959   84.1433    9.9832 C.3     1  UNL1        0.2640
     24 F          63.7721   83.3949   11.2276 F       1  UNL1       -0.2043
     25 C          62.3650   84.6799   10.9317 C.3     1  UNL1        0.0679
     26 C          61.3614   85.6883   10.4564 C.3     1  UNL1        0.0213
     27 C          61.3885   86.1599    9.0327 C.3     1  UNL1        0.0546
     28 C          62.4193   85.6233    8.0843 C.3     1  UNL1        0.0213
     29 C          63.4230   84.6149    8.5596 C.3     1  UNL1        0.0679
     30 C          65.2537   89.8498   14.5642 C.3     1  UNL1        0.0888
     31 C          65.5915   91.2034   14.0131 C.3     1  UNL1        0.0748
     32 C          65.3778   91.4952   12.5574 C.3     1  UNL1        0.0432
     33 C          65.7157   92.8488   12.0063 C.ar    1  UNL1       -0.0234
     34 C          65.5020   93.1406   10.5506 C.ar    1  UNL1       -0.0045
     35 C          65.8398   94.4942    9.9995 C.ar    1  UNL1       -0.0003
     36 C          66.3913   95.5560   10.9042 C.ar    1  UNL1       -0.0003
     37 C          66.6050   95.2642   12.3600 C.ar    1  UNL1       -0.0032
     38 C          66.2671   93.9106   12.9110 C.ar    1  UNL1       -0.0103
     39 C          66.4808   93.6188   14.3668 C.3     1  UNL1        0.0953
     40 N          66.1430   92.2652   14.9178 N.3     1  UNL1       -0.2934
     41 H          65.4534   92.4112   15.6551 H       1  UNL1        0.1236
@<TRIPOS>BOND
     1    22    23    1
     2    23    24    1
     3    23    25    1
     4    25    26    1
     5    26    27    1
     6    27    20    1
     7    20    19    1
     8    19    13    1
     9    13    14   ar
    10    14    15   ar
    11    15    16   ar
    12    16    12    1
    13    12     1    1
    14     1    30    1
    15    31    30    1
    16    31    32    1
    17    32    33    1
    18    33    34   ar
    19    34    35   ar
    20    35    36   ar
    21    36    37   ar
    22    37    38   ar
    23    38    39    1
    24    39    40    1
    25     2     1    1
    26     2     3    1
    27     3     4    1
    28     4     5    1
    29     5     6    1
    30     6     7   ar
    31     7     8   ar
    32     8     9   ar
    33     9    10   ar
    34    10    11   ar
    35    16    17   ar
    36    17    18   ar
    37    27    28    1
    38    28    29    1
    39    29    23    1
    40    18    13   ar
    41    40    31    1
    42    11     2    1
    43    38    33   ar
    44    11     6   ar
    45    20    21    1
    46    40    41    1
@<TRIPOS>MOLECULE
*****
 41 46 0 0 0
SMALL
GASTEIGER

@<TRIPOS>ATOM
      1 N          63.5224   84.3053   14.0546 N.3     1  UNL1       -0.2641
      2 C          62.9041   82.9664   13.7803 C.3     1  UNL1        0.0981
      3 C          62.0208   82.3235   14.8081 C.3     1  UNL1        0.0224
      4 C          61.4025   80.9847   14.5339 C.3     1  UNL1        0.0065
      5 C          61.6675   80.2887   13.2319 C.3     1  UNL1        0.0277
      6 C          62.5509   80.9316   12.2041 C.ar    1  UNL1       -0.0073
      7 C          62.8159   80.2356   10.9019 C.ar    1  UNL1       -0.0015
      8 C          63.6992   80.8785    9.8741 C.ar    1  UNL1        0.0203
      9 C          64.3175   82.2174   10.1484 C.ar    1  UNL1        0.0985
     10 N          64.0525   82.9133   11.4504 N.ar    1  UNL1       -0.2471
     11 C          63.1691   82.2704   12.4783 C.ar    1  UNL1        0.0695
     12 C          63.6490   84.7981   15.4656 C.3     1  UNL1        0.0994
     13 C          63.5735   89.2153   16.3215 C.ar    1  UNL1       -0.0064
     14 C          62.8560   88.2627   17.2313 C.ar    1  UNL1       -0.0032
     15 C          62.8811   86.7903   16.9460 C.ar    1  UNL1       -0.0032
     16 C          63.6238   86.2705   15.7509 C.ar    1  UNL1       -0.0062
     17 C          64.3413   87.2231   14.8412 C.ar    1  UNL1       -0.0032
     18 C          64.3162   88.6955   15.1265 C.ar    1  UNL1       -0.0032
     19 C          63.5484   90.6877   16.6068 C.3     1  UNL1        0.0956
     20 N          63.9543   91.6647   15.5434 N.3     1  UNL1       -0.2948
     21 H          63.5710   91.3187   14.6638 H       1  UNL1        0.1235
     22 F          69.3600   92.3249   13.7587 F       1  UNL1       -0.2043
     23 C          68.3127   92.5159   14.8155 C.3     1  UNL1        0.2640
     24 F          69.4914   93.1416   15.5006 F       1  UNL1       -0.2043
     25 C          67.6749   92.9242   16.1103 C.3     1  UNL1        0.0679
     26 C          66.2221   92.6405   16.3530 C.3     1  UNL1        0.0213
     27 C          65.4071   91.9484   15.3008 C.3     1  UNL1        0.0546
     28 C          66.0450   91.5402   14.0060 C.3     1  UNL1        0.0213
     29 C          67.4978   91.8239   13.7634 C.3     1  UNL1        0.0679
     30 C          64.0142   85.1513   12.9178 C.3     1  UNL1        0.0888
     31 C          63.0365   85.9086   12.0688 C.3     1  UNL1        0.0748
     32 C          63.0146   87.4080   12.1064 C.3     1  UNL1        0.0432
     33 C          62.0369   88.1653   11.2575 C.ar    1  UNL1       -0.0234
     34 C          62.0150   89.6647   11.2950 C.ar    1  UNL1       -0.0045
     35 C          61.0373   90.4219   10.4461 C.ar    1  UNL1       -0.0003
     36 C          60.0815   89.6798    9.5596 C.ar    1  UNL1       -0.0003
     37 C          60.1034   88.1805    9.5221 C.ar    1  UNL1       -0.0032
     38 C          61.0811   87.4232   10.3710 C.ar    1  UNL1       -0.0103
     39 C          61.1030   85.9238   10.3335 C.3     1  UNL1        0.0953
     40 N          62.0807   85.1666   11.1824 N.3     1  UNL1       -0.2934
     41 H          62.6454   84.6015   10.5482 H       1  UNL1        0.1236
@<TRIPOS>BOND
     1    22    23    1
     2    23    24    1
     3    23    25    1
     4    25    26    1
     5    26    27    1
     6    27    20    1
     7    20    19    1
     8    19    13    1
     9    13    14   ar
    10    14    15   ar
    11    15    16   ar
    12    16    12    1
    13    12     1    1
    14     1    30    1
    15    31    30    1
    16    31    32    1
    17    32    33    1
    18    33    34   ar
    19    34    35   ar
    20    35    36   ar
    21    36    37   ar
    22    37    38   ar
    23    38    39    1
    24    39    40    1
    25     2     1    1
    26     2     3    1
    27     3     4    1
    28     4     5    1
    29     5     6    1
    30     6     7   ar
    31     7     8   ar
    32     8     9   ar
    33     9    10   ar
    34    10    11   ar
    35    16    17   ar
    36    17    18   ar
    37    27    28    1
    38    28    29    1
    39    29    23    1
    40    18    13   ar
    41    40    31    1
    42    11     2    1
    43    38    33   ar
    44    11     6   ar
    45    20    21    1
    46    40    41    1
@<TRIPOS>MOLECULE
*****
 41 46 0 0 0
SMALL
GASTEIGER

@<TRIPOS>ATOM
      1 N          63.5051   85.2757   13.8730 N.3     1  UNL1       -0.2641
      2 C          62.9208   83.9018   13.7279 C.3     1  UNL1        0.0981
      3 C          62.0154   83.3556   14.7917 C.3     1  UNL1        0.0224
      4 C          61.4311   81.9817   14.6466 C.3     1  UNL1        0.0065
      5 C          61.7524   81.1540   13.4377 C.3     1  UNL1        0.0277
      6 C          62.6578   81.7001   12.3739 C.ar    1  UNL1       -0.0073
      7 C          62.9791   80.8723   11.1648 C.ar    1  UNL1       -0.0015
      8 C          63.8846   81.4185   10.1010 C.ar    1  UNL1        0.0203
      9 C          64.4689   82.7924   10.2461 C.ar    1  UNL1        0.0985
     10 N          64.1476   83.6201   11.4551 N.ar    1  UNL1       -0.2471
     11 C          63.2421   83.0740   12.5190 C.ar    1  UNL1        0.0695
     12 C          63.7975   85.8260   15.2374 C.3     1  UNL1        0.0994
     13 C          63.7297   90.2715   15.9323 C.ar    1  UNL1       -0.0064
     14 C          64.3713   89.7154   14.6957 C.ar    1  UNL1       -0.0032
     15 C          64.3940   88.2336   14.4640 C.ar    1  UNL1       -0.0032
     16 C          63.7749   87.3079   15.4690 C.ar    1  UNL1       -0.0062
     17 C          63.1333   87.8640   16.7055 C.ar    1  UNL1       -0.0032
     18 C          63.1107   89.3458   16.9372 C.ar    1  UNL1       -0.0032
     19 C          63.7071   91.7534   16.1639 C.3     1  UNL1        0.0956
     20 N          64.9766   92.4799   16.4967 N.3     1  UNL1       -0.2948
     21 H          64.7431   93.4714   16.5501 H       1  UNL1        0.1235
     22 F          70.0456   92.1445   13.8444 F       1  UNL1       -0.2043
     23 C          68.5470   92.1307   13.7801 C.3     1  UNL1        0.2640
     24 F          68.8719   91.9386   12.3283 F       1  UNL1       -0.2043
     25 C          67.1613   92.0501   13.2115 C.3     1  UNL1        0.0679
     26 C          65.9711   92.1665   14.1170 C.3     1  UNL1        0.0213
     27 C          66.1667   92.3635   15.5911 C.3     1  UNL1        0.0546
     28 C          67.5524   92.4441   16.1597 C.3     1  UNL1        0.0213
     29 C          68.7426   92.3277   15.2542 C.3     1  UNL1        0.0679
     30 C          63.7969   86.0992   12.6538 C.3     1  UNL1        0.0888
     31 C          62.6746   86.5474   11.7652 C.3     1  UNL1        0.0748
     32 C          62.4043   85.8276   10.4773 C.3     1  UNL1        0.0432
     33 C          61.2820   86.2759    9.5887 C.ar    1  UNL1       -0.0234
     34 C          61.0117   85.5560    8.3008 C.ar    1  UNL1       -0.0045
     35 C          59.8894   86.0043    7.4123 C.ar    1  UNL1       -0.0003
     36 C          59.0374   87.1725    7.8117 C.ar    1  UNL1       -0.0003
     37 C          59.3077   87.8923    9.0996 C.ar    1  UNL1       -0.0032
     38 C          60.4299   87.4440    9.9881 C.ar    1  UNL1       -0.0103
     39 C          60.7003   88.1639   11.2761 C.3     1  UNL1        0.0953
     40 N          61.8226   87.7156   12.1646 N.3     1  UNL1       -0.2934
     41 H          61.4085   87.4830   13.0673 H       1  UNL1        0.1236
@<TRIPOS>BOND
     1    22    23    1
     2    23    24    1
     3    23    25    1
     4    25    26    1
     5    26    27    1
     6    27    20    1
     7    20    19    1
     8    19    13    1
     9    13    14   ar
    10    14    15   ar
    11    15    16   ar
    12    16    12    1
    13    12     1    1
    14     1    30    1
    15    31    30    1
    16    31    32    1
    17    32    33    1
    18    33    34   ar
    19    34    35   ar
    20    35    36   ar
    21    36    37   ar
    22    37    38   ar
    23    38    39    1
    24    39    40    1
    25     2     1    1
    26     2     3    1
    27     3     4    1
    28     4     5    1
    29     5     6    1
    30     6     7   ar
    31     7     8   ar
    32     8     9   ar
    33     9    10   ar
    34    10    11   ar
    35    16    17   ar
    36    17    18   ar
    37    27    28    1
    38    28    29    1
    39    29    23    1
    40    18    13   ar
    41    40    31    1
    42    11     2    1
    43    38    33   ar
    44    11     6   ar
    45    20    21    1
    46    40    41    1
