@<TRIPOS>MOLECULE
*****
 28 30 0 0 0
SMALL
GASTEIGER

@<TRIPOS>ATOM
      1 C          61.9715   88.0229   10.4635 C.ar    1  UNL1       -0.0149
      2 C          62.4125   87.1575   11.6066 C.ar    1  UNL1        0.0152
      3 C          62.6027   85.6838   11.4018 C.ar    1  UNL1        0.0809
      4 N          62.3518   85.0754   10.0538 N.ar    1  UNL1       -0.2414
      5 C          61.9108   85.9408    8.9107 C.ar    1  UNL1        0.1523
      6 C          61.7206   87.4146    9.1156 C.ar    1  UNL1        0.0192
      7 C          63.0437   84.8184   12.5449 C.ar    1  UNL1        0.0185
      8 C          63.7911   85.4213   13.6971 C.ar    1  UNL1        0.0015
      9 C          64.2322   84.5560   14.8402 C.ar    1  UNL1        0.0009
     10 C          63.9257   83.0877   14.8310 C.ar    1  UNL1        0.0114
     11 C          63.1783   82.4847   13.6787 C.ar    1  UNL1        0.0577
     12 CL         62.8719   81.0163   13.6695 Cl      1  UNL1       -0.0822
     13 C          62.7373   83.3501   12.5356 C.ar    1  UNL1        0.0129
     14 C          61.6599   85.3324    7.5628 C.3     1  UNL1        0.4348
     15 F          61.4090   84.7241    6.2148 F       1  UNL1       -0.1644
     16 F          63.1103   84.9640    7.4591 F       1  UNL1       -0.1644
     17 F          60.2096   85.7009    7.6664 F       1  UNL1       -0.1644
     18 C          61.7814   89.4966   10.6684 C.3     1  UNL1        0.0527
     19 C          65.1021   91.9703   12.4301 C.ar    1  UNL1       -0.0166
     20 C          64.7381   92.1251   10.9832 C.ar    1  UNL1       -0.0042
     21 C          63.6311   91.3005   10.3960 C.ar    1  UNL1       -0.0042
     22 C          62.8883   90.3212   11.2556 C.ar    1  UNL1       -0.0178
     23 C          63.2524   90.1664   12.7025 C.ar    1  UNL1       -0.0042
     24 C          64.3593   90.9909   13.2897 C.ar    1  UNL1       -0.0042
     25 C          66.2091   92.7948   13.0173 C.3     1  UNL1        0.0679
     26 O          67.4603   91.7626   15.0469 O.co2   1  UNL1       -0.5488
     27 C          67.4212   92.1232   13.5913 C.2     1  UNL1        0.0547
     28 O          68.5943   91.8120   12.7099 O.co2   1  UNL1       -0.5488
@<TRIPOS>UNITY_ATOM_ATTR
26 1
charge -1
@<TRIPOS>BOND
     1    26    27   ar
     2    27    28   ar
     3    27    25    1
     4    25    19    1
     5    19    20   ar
     6    20    21   ar
     7    21    22   ar
     8    22    18    1
     9    18     1    1
    10     1     2   ar
    11     2     3   ar
    12     3     7    1
    13     7     8   ar
    14     8     9   ar
    15     9    10   ar
    16    10    11   ar
    17    11    12    1
    18    11    13   ar
    19     3     4   ar
    20     4     5   ar
    21     5    14    1
    22    14    15    1
    23    14    16    1
    24    14    17    1
    25     5     6   ar
    26    22    23   ar
    27    23    24   ar
    28    24    19   ar
    29     6     1   ar
    30    13     7   ar
@<TRIPOS>MOLECULE
*****
 28 30 0 0 0
SMALL
GASTEIGER

@<TRIPOS>ATOM
      1 C          63.4271   84.4049   14.6263 C.ar    1  UNL1       -0.0149
      2 C          63.1422   85.0885   13.3218 C.ar    1  UNL1        0.0152
      3 C          62.6759   84.2884   12.1419 C.ar    1  UNL1        0.0809
      4 N          62.4945   82.8046   12.2663 N.ar    1  UNL1       -0.2414
      5 C          62.7794   82.1210   13.5707 C.ar    1  UNL1        0.1523
      6 C          63.2457   82.9211   14.7507 C.ar    1  UNL1        0.0192
      7 C          62.3910   84.9720   10.8374 C.ar    1  UNL1        0.0185
      8 C          63.1893   84.6214    9.6169 C.ar    1  UNL1        0.0015
      9 C          62.9045   85.3050    8.3125 C.ar    1  UNL1        0.0009
     10 C          61.8213   86.3392    8.2286 C.ar    1  UNL1        0.0114
     11 C          61.0230   86.6898    9.4492 C.ar    1  UNL1        0.0577
     12 CL         59.9397   87.7241    9.3652 Cl      1  UNL1       -0.0822
     13 C          61.3078   86.0062   10.7536 C.ar    1  UNL1        0.0129
     14 C          62.5980   80.6372   13.6951 C.3     1  UNL1        0.4348
     15 F          62.4166   79.1534   13.8196 F       1  UNL1       -0.1644
     16 F          64.0707   80.4769   13.9306 F       1  UNL1       -0.1644
     17 F          61.1253   80.7975   13.4597 F       1  UNL1       -0.1644
     18 C          63.8934   85.2050   15.8063 C.3     1  UNL1        0.0527
     19 C          63.7392   89.7006   15.6789 C.ar    1  UNL1       -0.0166
     20 C          64.4245   88.9423   14.5811 C.ar    1  UNL1       -0.0042
     21 C          64.4759   87.4437   14.6236 C.ar    1  UNL1       -0.0042
     22 C          63.8420   86.7036   15.7638 C.ar    1  UNL1       -0.0178
     23 C          63.1567   87.4619   16.8616 C.ar    1  UNL1       -0.0042
     24 C          63.1053   88.9604   16.8192 C.ar    1  UNL1       -0.0042
     25 C          63.6878   91.1991   15.6365 C.3     1  UNL1        0.0679
     26 O          66.1182   92.1001   15.4592 O.co2   1  UNL1       -0.5488
     27 C          64.8192   92.0047   16.2032 C.2     1  UNL1        0.0547
     28 O          64.6515   92.7149   17.5137 O.co2   1  UNL1       -0.5488
@<TRIPOS>UNITY_ATOM_ATTR
26 1
charge -1
@<TRIPOS>BOND
     1    26    27   ar
     2    27    28   ar
     3    27    25    1
     4    25    19    1
     5    19    20   ar
     6    20    21   ar
     7    21    22   ar
     8    22    18    1
     9    18     1    1
    10     1     2   ar
    11     2     3   ar
    12     3     7    1
    13     7     8   ar
    14     8     9   ar
    15     9    10   ar
    16    10    11   ar
    17    11    12    1
    18    11    13   ar
    19     3     4   ar
    20     4     5   ar
    21     5    14    1
    22    14    15    1
    23    14    16    1
    24    14    17    1
    25     5     6   ar
    26    22    23   ar
    27    23    24   ar
    28    24    19   ar
    29     6     1   ar
    30    13     7   ar
@<TRIPOS>MOLECULE
*****
 28 30 0 0 0
SMALL
GASTEIGER

@<TRIPOS>ATOM
      1 C          65.0241   91.5851   13.8094 C.ar    1  UNL1       -0.0149
      2 C          65.2672   92.2377   12.4808 C.ar    1  UNL1        0.0152
      3 C          66.5681   92.9353   12.2147 C.ar    1  UNL1        0.0809
      4 N          67.6260   92.9804   13.2771 N.ar    1  UNL1       -0.2414
      5 C          67.3830   92.3279   14.6057 C.ar    1  UNL1        0.1523
      6 C          66.0820   91.6302   14.8719 C.ar    1  UNL1        0.0192
      7 C          66.8112   93.5878   10.8861 C.ar    1  UNL1        0.0185
      8 C          67.7280   92.9420    9.8899 C.ar    1  UNL1        0.0015
      9 C          67.9711   93.5945    8.5613 C.ar    1  UNL1        0.0009
     10 C          67.2974   94.8928    8.2289 C.ar    1  UNL1        0.0114
     11 C          66.3806   95.5386    9.2251 C.ar    1  UNL1        0.0577
     12 CL         65.7069   96.8370    8.8927 Cl      1  UNL1       -0.0822
     13 C          66.1375   94.8861   10.5537 C.ar    1  UNL1        0.0129
     14 C          68.4409   92.3730   15.6682 C.3     1  UNL1        0.4348
     15 F          69.4988   92.4181   16.7306 F       1  UNL1       -0.1644
     16 F          69.5035   92.3855   14.6095 F       1  UNL1       -0.1644
     17 F          67.3783   92.3604   16.7268 F       1  UNL1       -0.1644
     18 C          63.7231   90.8875   14.0756 C.3     1  UNL1        0.0527
     19 C          63.7078   86.7746   15.9015 C.ar    1  UNL1       -0.0166
     20 C          63.1781   87.9426   16.6794 C.ar    1  UNL1       -0.0042
     21 C          63.1832   89.3136   16.0708 C.ar    1  UNL1       -0.0042
     22 C          63.7180   89.5166   14.6842 C.ar    1  UNL1       -0.0178
     23 C          64.2476   88.3486   13.9062 C.ar    1  UNL1       -0.0042
     24 C          64.2425   86.9777   14.5148 C.ar    1  UNL1       -0.0042
     25 C          63.7026   85.4037   16.5101 C.3     1  UNL1        0.0679
     26 O          63.9296   82.9893   15.5776 O.co2   1  UNL1       -0.5488
     27 C          63.1291   84.2466   15.7472 C.2     1  UNL1        0.0547
     28 O          61.7551   84.3466   15.1538 O.co2   1  UNL1       -0.5488
@<TRIPOS>UNITY_ATOM_ATTR
26 1
charge -1
@<TRIPOS>BOND
     1    26    27   ar
     2    27    28   ar
     3    27    25    1
     4    25    19    1
     5    19    20   ar
     6    20    21   ar
     7    21    22   ar
     8    22    18    1
     9    18     1    1
    10     1     2   ar
    11     2     3   ar
    12     3     7    1
    13     7     8   ar
    14     8     9   ar
    15     9    10   ar
    16    10    11   ar
    17    11    12    1
    18    11    13   ar
    19     3     4   ar
    20     4     5   ar
    21     5    14    1
    22    14    15    1
    23    14    16    1
    24    14    17    1
    25     5     6   ar
    26    22    23   ar
    27    23    24   ar
    28    24    19   ar
    29     6     1   ar
    30    13     7   ar
@<TRIPOS>MOLECULE
*****
 28 30 0 0 0
SMALL
GASTEIGER

@<TRIPOS>ATOM
      1 C          61.9975   89.1232   10.7917 C.ar    1  UNL1       -0.0149
      2 C          62.5753   87.9860   11.5810 C.ar    1  UNL1        0.0152
      3 C          62.2216   86.5718   11.2277 C.ar    1  UNL1        0.0809
      4 N          61.2901   86.2947   10.0851 N.ar    1  UNL1       -0.2414
      5 C          60.7123   87.4319    9.2958 C.ar    1  UNL1        0.1523
      6 C          61.0660   88.8462    9.6491 C.ar    1  UNL1        0.0192
      7 C          62.7994   85.4346   12.0170 C.ar    1  UNL1        0.0185
      8 C          63.6093   85.7117   13.2487 C.ar    1  UNL1        0.0015
      9 C          64.1871   84.5746   14.0380 C.ar    1  UNL1        0.0009
     10 C          63.9550   83.1603   13.5955 C.ar    1  UNL1        0.0114
     11 C          63.1452   82.8831   12.3637 C.ar    1  UNL1        0.0577
     12 CL         62.9131   81.4687   11.9213 Cl      1  UNL1       -0.0822
     13 C          62.5674   84.0203   11.5745 C.ar    1  UNL1        0.0129
     14 C          59.7808   87.1548    8.1532 C.3     1  UNL1        0.4348
     15 F          58.8493   86.8777    7.0106 F       1  UNL1       -0.1644
     16 F          59.3454   88.5902    8.1601 F       1  UNL1       -0.1644
     17 F          60.2162   85.7194    8.1463 F       1  UNL1       -0.1644
     18 C          62.3512   90.5374   11.1450 C.3     1  UNL1        0.0527
     19 C          65.7825   91.3687   13.9352 C.ar    1  UNL1       -0.0166
     20 C          64.7178   90.3875   14.3272 C.ar    1  UNL1       -0.0042
     21 C          63.5740   90.1105   13.3972 C.ar    1  UNL1       -0.0042
     22 C          63.4949   90.8145   12.0751 C.ar    1  UNL1       -0.0178
     23 C          64.5596   91.7956   11.6830 C.ar    1  UNL1       -0.0042
     24 C          65.7034   92.0727   12.6131 C.ar    1  UNL1       -0.0042
     25 C          66.9262   91.6457   14.8653 C.3     1  UNL1        0.0679
     26 O          65.6015   92.7143   16.8283 O.co2   1  UNL1       -0.5488
     27 C          66.7955   92.7039   15.9204 C.2     1  UNL1        0.0547
     28 O          67.8588   93.7516   16.0676 O.co2   1  UNL1       -0.5488
@<TRIPOS>UNITY_ATOM_ATTR
26 1
charge -1
@<TRIPOS>BOND
     1    26    27   ar
     2    27    28   ar
     3    27    25    1
     4    25    19    1
     5    19    20   ar
     6    20    21   ar
     7    21    22   ar
     8    22    18    1
     9    18     1    1
    10     1     2   ar
    11     2     3   ar
    12     3     7    1
    13     7     8   ar
    14     8     9   ar
    15     9    10   ar
    16    10    11   ar
    17    11    12    1
    18    11    13   ar
    19     3     4   ar
    20     4     5   ar
    21     5    14    1
    22    14    15    1
    23    14    16    1
    24    14    17    1
    25     5     6   ar
    26    22    23   ar
    27    23    24   ar
    28    24    19   ar
    29     6     1   ar
    30    13     7   ar
@<TRIPOS>MOLECULE
*****
 28 30 0 0 0
SMALL
GASTEIGER

@<TRIPOS>ATOM
      1 C          61.5009   88.5350   11.1181 C.ar    1  UNL1       -0.0149
      2 C          62.2589   87.3012   11.5098 C.ar    1  UNL1        0.0152
      3 C          62.1158   86.0451   10.7026 C.ar    1  UNL1        0.0809
      4 N          61.2148   86.0227    9.5035 N.ar    1  UNL1       -0.2414
      5 C          60.4569   87.2564    9.1118 C.ar    1  UNL1        0.1523
      6 C          60.5999   88.5126    9.9190 C.ar    1  UNL1        0.0192
      7 C          62.8738   84.8113   11.0944 C.ar    1  UNL1        0.0185
      8 C          63.5242   83.9646   10.0408 C.ar    1  UNL1        0.0015
      9 C          64.2821   82.7309   10.4325 C.ar    1  UNL1        0.0009
     10 C          64.3896   82.3439   11.8777 C.ar    1  UNL1        0.0114
     11 C          63.7391   83.1907   12.9313 C.ar    1  UNL1        0.0577
     12 CL         63.8466   82.8036   14.3765 Cl      1  UNL1       -0.0822
     13 C          62.9812   84.4244   12.5396 C.ar    1  UNL1        0.0129
     14 C          59.5559   87.2340    7.9127 C.3     1  UNL1        0.4348
     15 F          58.6549   87.2116    6.7137 F       1  UNL1       -0.1644
     16 F          59.2996   88.7027    8.0778 F       1  UNL1       -0.1644
     17 F          59.8122   85.7653    7.7476 F       1  UNL1       -0.1644
     18 C          61.6440   89.7911   11.9253 C.3     1  UNL1        0.0527
     19 C          65.3325   92.3331   11.4971 C.ar    1  UNL1       -0.0166
     20 C          64.9610   91.7701   12.8368 C.ar    1  UNL1       -0.0042
     21 C          63.7315   90.9227   12.9796 C.ar    1  UNL1       -0.0042
     22 C          62.8735   90.6384   11.7826 C.ar    1  UNL1       -0.0178
     23 C          63.2450   91.2014   10.4428 C.ar    1  UNL1       -0.0042
     24 C          64.4745   92.0487   10.3001 C.ar    1  UNL1       -0.0042
     25 C          66.5620   93.1804   11.3543 C.3     1  UNL1        0.0679
     26 O          68.0686   91.8898    9.6766 O.co2   1  UNL1       -0.5488
     27 C          67.3535   93.1450   10.0807 C.2     1  UNL1        0.0547
     28 O          67.4299   94.3648    9.2111 O.co2   1  UNL1       -0.5488
@<TRIPOS>UNITY_ATOM_ATTR
26 1
charge -1
@<TRIPOS>BOND
     1    26    27   ar
     2    27    28   ar
     3    27    25    1
     4    25    19    1
     5    19    20   ar
     6    20    21   ar
     7    21    22   ar
     8    22    18    1
     9    18     1    1
    10     1     2   ar
    11     2     3   ar
    12     3     7    1
    13     7     8   ar
    14     8     9   ar
    15     9    10   ar
    16    10    11   ar
    17    11    12    1
    18    11    13   ar
    19     3     4   ar
    20     4     5   ar
    21     5    14    1
    22    14    15    1
    23    14    16    1
    24    14    17    1
    25     5     6   ar
    26    22    23   ar
    27    23    24   ar
    28    24    19   ar
    29     6     1   ar
    30    13     7   ar
@<TRIPOS>MOLECULE
*****
 28 30 0 0 0
SMALL
GASTEIGER

@<TRIPOS>ATOM
      1 C          63.9030   88.5186   13.7697 C.ar    1  UNL1       -0.0149
      2 C          63.1251   88.3912   12.4935 C.ar    1  UNL1        0.0152
      3 C          62.7634   87.0337   11.9680 C.ar    1  UNL1        0.0809
      4 N          63.1795   85.8035   12.7186 N.ar    1  UNL1       -0.2414
      5 C          63.9573   85.9309   13.9948 C.ar    1  UNL1        0.1523
      6 C          64.3191   87.2884   14.5204 C.ar    1  UNL1        0.0192
      7 C          61.9855   86.9063   10.6917 C.ar    1  UNL1        0.0185
      8 C          60.7008   87.6610   10.5179 C.ar    1  UNL1        0.0015
      9 C          59.9230   87.5336    9.2417 C.ar    1  UNL1        0.0009
     10 C          60.4297   86.6516    8.1394 C.ar    1  UNL1        0.0114
     11 C          61.7143   85.8970    8.3132 C.ar    1  UNL1        0.0577
     12 CL         62.2211   85.0149    7.2108 Cl      1  UNL1       -0.0822
     13 C          62.4922   86.0243    9.5894 C.ar    1  UNL1        0.0129
     14 C          64.3734   84.7007   14.7455 C.3     1  UNL1        0.4348
     15 F          64.7895   83.4705   15.4961 F       1  UNL1       -0.1644
     16 F          64.2217   85.4403   16.0416 F       1  UNL1       -0.1644
     17 F          64.5252   83.9611   13.4493 F       1  UNL1       -0.1644
     18 C          64.2647   89.8762   14.2953 C.3     1  UNL1        0.0527
     19 C          66.0040   92.9699   11.5286 C.ar    1  UNL1       -0.0166
     20 C          66.6882   92.6540   12.8255 C.ar    1  UNL1       -0.0042
     21 C          66.1085   91.6228   13.7478 C.ar    1  UNL1       -0.0042
     22 C          64.8445   90.9074   13.3731 C.ar    1  UNL1       -0.0178
     23 C          64.1602   91.2232   12.0762 C.ar    1  UNL1       -0.0042
     24 C          64.7400   92.2544   11.1540 C.ar    1  UNL1       -0.0042
     25 C          66.5837   94.0011   10.6064 C.3     1  UNL1        0.0679
     26 O          67.6107   94.1938    8.2277 O.co2   1  UNL1       -0.5488
     27 C          67.6338   93.6100    9.6093 C.2     1  UNL1        0.0547
     28 O          68.7070   92.6351    9.9937 O.co2   1  UNL1       -0.5488
@<TRIPOS>UNITY_ATOM_ATTR
26 1
charge -1
@<TRIPOS>BOND
     1    26    27   ar
     2    27    28   ar
     3    27    25    1
     4    25    19    1
     5    19    20   ar
     6    20    21   ar
     7    21    22   ar
     8    22    18    1
     9    18     1    1
    10     1     2   ar
    11     2     3   ar
    12     3     7    1
    13     7     8   ar
    14     8     9   ar
    15     9    10   ar
    16    10    11   ar
    17    11    12    1
    18    11    13   ar
    19     3     4   ar
    20     4     5   ar
    21     5    14    1
    22    14    15    1
    23    14    16    1
    24    14    17    1
    25     5     6   ar
    26    22    23   ar
    27    23    24   ar
    28    24    19   ar
    29     6     1   ar
    30    13     7   ar
@<TRIPOS>MOLECULE
*****
 28 30 0 0 0
SMALL
GASTEIGER

@<TRIPOS>ATOM
      1 C          63.9800   90.9719   13.3919 C.ar    1  UNL1       -0.0149
      2 C          65.0097   91.8330   12.7223 C.ar    1  UNL1        0.0152
      3 C          64.8772   92.1652   11.2656 C.ar    1  UNL1        0.0809
      4 N          63.7150   91.6363   10.4784 N.ar    1  UNL1       -0.2414
      5 C          62.6854   90.7753   11.1479 C.ar    1  UNL1        0.1523
      6 C          62.8178   90.4430   12.6047 C.ar    1  UNL1        0.0192
      7 C          65.9069   93.0263   10.5960 C.ar    1  UNL1        0.0185
      8 C          67.1398   92.4036   10.0110 C.ar    1  UNL1        0.0015
      9 C          68.1695   93.2646    9.3414 C.ar    1  UNL1        0.0009
     10 C          67.9663   94.7483    9.2569 C.ar    1  UNL1        0.0114
     11 C          66.7334   95.3710    9.8419 C.ar    1  UNL1        0.0577
     12 CL         66.5302   96.8549    9.7573 Cl      1  UNL1       -0.0822
     13 C          65.7037   94.5100   10.5115 C.ar    1  UNL1        0.0129
     14 C          61.5232   90.2464   10.3608 C.3     1  UNL1        0.4348
     15 F          60.3610   89.7175    9.5736 F       1  UNL1       -0.1644
     16 F          60.5766   90.9699   11.2721 F       1  UNL1       -0.1644
     17 F          62.4698   89.5229    9.4494 F       1  UNL1       -0.1644
     18 C          64.1125   90.6397   14.8486 C.3     1  UNL1        0.0527
     19 C          63.5017   86.4095   16.2564 C.ar    1  UNL1       -0.0166
     20 C          62.9465   87.5526   17.0532 C.ar    1  UNL1       -0.0042
     21 C          63.1500   88.9627   16.5839 C.ar    1  UNL1       -0.0042
     22 C          63.9089   89.2296   15.3179 C.ar    1  UNL1       -0.0178
     23 C          64.4641   88.0865   14.5211 C.ar    1  UNL1       -0.0042
     24 C          64.2605   86.6764   14.9904 C.ar    1  UNL1       -0.0042
     25 C          63.2981   84.9994   16.7256 C.3     1  UNL1        0.0679
     26 O          61.8388   83.8022   14.9403 O.co2   1  UNL1       -0.5488
     27 C          63.1128   83.8959   15.7267 C.2     1  UNL1        0.0547
     28 O          64.2013   82.8860   15.5141 O.co2   1  UNL1       -0.5488
@<TRIPOS>UNITY_ATOM_ATTR
26 1
charge -1
@<TRIPOS>BOND
     1    26    27   ar
     2    27    28   ar
     3    27    25    1
     4    25    19    1
     5    19    20   ar
     6    20    21   ar
     7    21    22   ar
     8    22    18    1
     9    18     1    1
    10     1     2   ar
    11     2     3   ar
    12     3     7    1
    13     7     8   ar
    14     8     9   ar
    15     9    10   ar
    16    10    11   ar
    17    11    12    1
    18    11    13   ar
    19     3     4   ar
    20     4     5   ar
    21     5    14    1
    22    14    15    1
    23    14    16    1
    24    14    17    1
    25     5     6   ar
    26    22    23   ar
    27    23    24   ar
    28    24    19   ar
    29     6     1   ar
    30    13     7   ar
@<TRIPOS>MOLECULE
*****
 28 30 0 0 0
SMALL
GASTEIGER

@<TRIPOS>ATOM
      1 C          61.9960   89.2274   10.1041 C.ar    1  UNL1       -0.0149
      2 C          62.6037   88.2341   11.0497 C.ar    1  UNL1        0.0152
      3 C          62.1584   86.8021   11.0214 C.ar    1  UNL1        0.0809
      4 N          61.1054   86.3632   10.0474 N.ar    1  UNL1       -0.2414
      5 C          60.4976   87.3565    9.1019 C.ar    1  UNL1        0.1523
      6 C          60.9430   88.7886    9.1302 C.ar    1  UNL1        0.0192
      7 C          62.7661   85.8088   11.9670 C.ar    1  UNL1        0.0185
      8 C          62.6762   84.3407   11.6724 C.ar    1  UNL1        0.0015
      9 C          63.2838   83.3475   12.6179 C.ar    1  UNL1        0.0009
     10 C          63.9815   83.8222   13.8580 C.ar    1  UNL1        0.0114
     11 C          64.0714   85.2903   14.1526 C.ar    1  UNL1        0.0577
     12 CL         64.7691   85.7650   15.3927 Cl      1  UNL1       -0.0822
     13 C          63.4638   86.2835   13.2071 C.ar    1  UNL1        0.0129
     14 C          59.4446   86.9176    8.1279 C.3     1  UNL1        0.4348
     15 F          58.3916   86.4788    7.1540 F       1  UNL1       -0.1644
     16 F          60.0133   85.5296    8.1385 F       1  UNL1       -0.1644
     17 F          58.8759   88.3056    8.1174 F       1  UNL1       -0.1644
     18 C          62.4413   90.6595   10.1324 C.3     1  UNL1        0.0527
     19 C          65.3617   92.0462   13.2627 C.ar    1  UNL1       -0.0166
     20 C          65.4505   92.5817   11.8645 C.ar    1  UNL1       -0.0042
     21 C          64.4770   92.1195   10.8210 C.ar    1  UNL1       -0.0042
     22 C          63.4148   91.1217   11.1759 C.ar    1  UNL1       -0.0178
     23 C          63.3260   90.5861   12.5741 C.ar    1  UNL1       -0.0042
     24 C          64.2994   91.0484   13.6176 C.ar    1  UNL1       -0.0042
     25 C          66.3351   92.5084   14.3062 C.3     1  UNL1        0.0679
     26 O          68.3578   91.5668   15.6375 O.co2   1  UNL1       -0.5488
     27 C          67.7277   91.9518   14.3317 C.2     1  UNL1        0.0547
     28 O          68.4904   91.7801   13.0515 O.co2   1  UNL1       -0.5488
@<TRIPOS>UNITY_ATOM_ATTR
26 1
charge -1
@<TRIPOS>BOND
     1    26    27   ar
     2    27    28   ar
     3    27    25    1
     4    25    19    1
     5    19    20   ar
     6    20    21   ar
     7    21    22   ar
     8    22    18    1
     9    18     1    1
    10     1     2   ar
    11     2     3   ar
    12     3     7    1
    13     7     8   ar
    14     8     9   ar
    15     9    10   ar
    16    10    11   ar
    17    11    12    1
    18    11    13   ar
    19     3     4   ar
    20     4     5   ar
    21     5    14    1
    22    14    15    1
    23    14    16    1
    24    14    17    1
    25     5     6   ar
    26    22    23   ar
    27    23    24   ar
    28    24    19   ar
    29     6     1   ar
    30    13     7   ar
@<TRIPOS>MOLECULE
*****
 28 30 0 0 0
SMALL
GASTEIGER

@<TRIPOS>ATOM
      1 C          63.7475   88.9269   13.4520 C.ar    1  UNL1       -0.0149
      2 C          62.9805   88.7355   12.1772 C.ar    1  UNL1        0.0152
      3 C          62.6395   87.3524   11.7074 C.ar    1  UNL1        0.0809
      4 N          63.0656   86.1606   12.5124 N.ar    1  UNL1       -0.2414
      5 C          63.8325   86.3519   13.7872 C.ar    1  UNL1        0.1523
      6 C          64.1735   87.7351   14.2571 C.ar    1  UNL1        0.0192
      7 C          61.8725   87.1610   10.4326 C.ar    1  UNL1        0.0185
      8 C          61.8700   85.8242    9.7523 C.ar    1  UNL1        0.0015
      9 C          61.1031   85.6328    8.4775 C.ar    1  UNL1        0.0009
     10 C          60.3387   86.7782    7.8830 C.ar    1  UNL1        0.0114
     11 C          60.3412   88.1151    8.5632 C.ar    1  UNL1        0.0577
     12 CL         59.5768   89.2606    7.9686 Cl      1  UNL1       -0.0822
     13 C          61.1082   88.3065    9.8380 C.ar    1  UNL1        0.0129
     14 C          64.2586   85.1601   14.5923 C.3     1  UNL1        0.4348
     15 F          64.6846   83.9683   15.3973 F       1  UNL1       -0.1644
     16 F          63.0550   84.4050   14.1113 F       1  UNL1       -0.1644
     17 F          65.4622   85.9152   15.0732 F       1  UNL1       -0.1644
     18 C          64.0884   90.3100   13.9218 C.3     1  UNL1        0.0527
     19 C          66.2864   93.1348   11.1942 C.ar    1  UNL1       -0.0166
     20 C          64.9807   92.5373   10.7606 C.ar    1  UNL1       -0.0042
     21 C          64.2480   91.5957   11.6698 C.ar    1  UNL1       -0.0042
     22 C          64.8210   91.2516   13.0126 C.ar    1  UNL1       -0.0178
     23 C          66.1268   91.8491   13.4462 C.ar    1  UNL1       -0.0042
     24 C          66.8594   92.7906   12.5370 C.ar    1  UNL1       -0.0042
     25 C          67.0190   94.0763   10.2850 C.3     1  UNL1        0.0679
     26 O          66.0153   96.1085   11.5550 O.co2   1  UNL1       -0.5488
     27 C          66.7973   95.5553   10.4007 C.2     1  UNL1        0.0547
     28 O          67.3576   96.4812    9.3620 O.co2   1  UNL1       -0.5488
@<TRIPOS>UNITY_ATOM_ATTR
26 1
charge -1
@<TRIPOS>BOND
     1    26    27   ar
     2    27    28   ar
     3    27    25    1
     4    25    19    1
     5    19    20   ar
     6    20    21   ar
     7    21    22   ar
     8    22    18    1
     9    18     1    1
    10     1     2   ar
    11     2     3   ar
    12     3     7    1
    13     7     8   ar
    14     8     9   ar
    15     9    10   ar
    16    10    11   ar
    17    11    12    1
    18    11    13   ar
    19     3     4   ar
    20     4     5   ar
    21     5    14    1
    22    14    15    1
    23    14    16    1
    24    14    17    1
    25     5     6   ar
    26    22    23   ar
    27    23    24   ar
    28    24    19   ar
    29     6     1   ar
    30    13     7   ar
