@<TRIPOS>MOLECULE
*****
 39 43 0 0 0
SMALL
GASTEIGER

@<TRIPOS>ATOM
      1 N          63.6864   83.3413   12.7855 N.ar    1  UNL1       -0.2252
      2 C          64.0254   83.4059   14.2453 C.ar    1  UNL1        0.2800
      3 O          64.4127   82.2451   15.1128 O.2     1  UNL1       -0.2654
      4 C          63.9092   84.8352   14.6853 C.ar    1  UNL1        0.1125
      5 C          64.1244   85.4970   16.0141 C.ar    1  UNL1        0.1097
      6 N          63.9287   86.9774   16.1551 N.ar    1  UNL1       -0.2118
      7 C          63.5178   87.7961   14.9673 C.ar    1  UNL1        0.2221
      8 N          63.3026   87.1344   13.6385 N.ar    1  UNL1       -0.1942
      9 C          63.4983   85.6539   13.4975 C.ar    1  UNL1        0.1726
     10 N          63.3606   84.7306   12.3234 N.ar    1  UNL1       -0.2113
     11 C          62.9664   85.1271   10.9315 C.ar    1  UNL1        0.1633
     12 C          63.4969   84.3625    9.7552 C.ar    1  UNL1        0.0388
     13 C          63.1027   84.7590    8.3633 C.ar    1  UNL1        0.0044
     14 C          62.1778   85.9201    8.1477 C.ar    1  UNL1        0.0172
     15 C          61.6472   86.6847    9.3240 C.ar    1  UNL1        0.0847
     16 N          62.0415   86.2882   10.7159 N.ar    1  UNL1       -0.2286
     17 C          60.7224   87.8458    9.1085 C.3     1  UNL1        0.1233
     18 C          61.6685   88.7382    9.8559 C.3     1  UNL1        0.0355
     19 C          59.7762   86.9534    8.3612 C.3     1  UNL1        0.0355
     20 O          59.7975   89.0068    8.8930 O.3     1  UNL1       -0.3812
     21 H          60.1749   89.8012    9.3022 H       1  UNL1        0.2107
     22 N          63.3221   89.2767   15.1083 N.pl3   1  UNL1       -0.2825
     23 H          62.7574   89.6318   15.8324 H       1  UNL1        0.1551
     24 C          63.9867   90.2160   14.1462 C.ar    1  UNL1        0.0505
     25 C          65.2594   90.9093   14.5329 C.ar    1  UNL1        0.0159
     26 C          65.9240   91.8488   13.5707 C.ar    1  UNL1        0.0158
     27 C          65.3159   92.0949   12.2218 C.ar    1  UNL1        0.0480
     28 C          64.0432   91.4016   11.8350 C.ar    1  UNL1        0.0158
     29 C          63.3786   90.4622   12.7972 C.ar    1  UNL1        0.0159
     30 N          65.9805   93.0343   11.2596 N.pl3   1  UNL1       -0.3046
     31 C          66.9311   92.5028   10.2281 C.3     1  UNL1        0.1081
     32 C          67.5957   93.4423    9.2659 C.3     1  UNL1        0.0938
     33 N          67.3098   94.9131    9.3353 N.3     1  UNL1       -0.2686
     34 C          67.9744   95.8525    8.3731 C.3     1  UNL1        0.0897
     35 C          66.3592   95.4446   10.3668 C.3     1  UNL1        0.0938
     36 C          65.6946   94.5052   11.3289 C.3     1  UNL1        0.1081
     37 C          63.6752   82.1044   11.9369 C.3     1  UNL1        0.1553
     38 C          62.3918   80.2195   13.1819 C.2     1  UNL1       -0.0029
     39 C          62.5187   81.1524   12.0141 C.2     1  UNL1        0.0001
@<TRIPOS>BOND
     1    38    39    2
     2    39    37    1
     3    37     1    1
     4     1     2   ar
     5     2     3    2
     6     2     4   ar
     7     4     5   ar
     8     5     6   ar
     9     6     7   ar
    10     7    22    1
    11    22    24    1
    12    24    25   ar
    13    25    26   ar
    14    26    27   ar
    15    27    30    1
    16    30    31    1
    17    31    32    1
    18    32    33    1
    19    33    34    1
    20    33    35    1
    21    35    36    1
    22    27    28   ar
    23    28    29   ar
    24     7     8   ar
    25     8     9   ar
    26     9    10   ar
    27    10    11    1
    28    11    12   ar
    29    12    13   ar
    30    13    14   ar
    31    14    15   ar
    32    15    17    1
    33    17    18    1
    34    17    19    1
    35    17    20    1
    36    15    16   ar
    37    10     1   ar
    38    16    11   ar
    39     9     4   ar
    40    29    24   ar
    41    36    30    1
    42    22    23    1
    43    20    21    1
@<TRIPOS>MOLECULE
*****
 39 43 0 0 0
SMALL
GASTEIGER

@<TRIPOS>ATOM
      1 N          62.9113   83.8682   12.4514 N.ar    1  UNL1       -0.2252
      2 C          63.6533   83.6968   13.7437 C.ar    1  UNL1        0.2800
      3 O          64.0796   82.3923   14.3493 O.2     1  UNL1       -0.2654
      4 C          63.8943   85.0588   14.3241 C.ar    1  UNL1        0.1125
      5 C          64.5772   85.5073   15.5821 C.ar    1  UNL1        0.1097
      6 N          64.6669   86.9690   15.9065 N.ar    1  UNL1       -0.2118
      7 C          64.0739   87.9822   14.9729 C.ar    1  UNL1        0.2221
      8 N          63.3910   87.5338   13.7149 N.ar    1  UNL1       -0.1942
      9 C          63.3013   86.0720   13.3905 C.ar    1  UNL1        0.1726
     10 N          62.6937   85.3362   12.2332 N.ar    1  UNL1       -0.2113
     11 C          61.9918   85.9591   11.0630 C.ar    1  UNL1        0.1633
     12 C          61.2500   87.2514   11.2344 C.ar    1  UNL1        0.0388
     13 C          60.5481   87.8743   10.0641 C.ar    1  UNL1        0.0044
     14 C          60.5881   87.2048    8.7225 C.ar    1  UNL1        0.0172
     15 C          61.3299   85.9124    8.5510 C.ar    1  UNL1        0.0847
     16 N          62.0318   85.2895    9.7212 N.ar    1  UNL1       -0.2286
     17 C          61.3699   85.2428    7.2094 C.3     1  UNL1        0.1233
     18 C          62.8039   84.8675    7.4393 C.3     1  UNL1        0.0355
     19 C          59.9358   85.6181    6.9794 C.3     1  UNL1        0.0355
     20 O          61.4098   84.5732    5.8677 O.3     1  UNL1       -0.3812
     21 H          62.2927   84.2001    5.7187 H       1  UNL1        0.2107
     22 N          64.1637   89.4440   15.2973 N.pl3   1  UNL1       -0.2825
     23 H          63.8850   89.7696   16.1837 H       1  UNL1        0.1551
     24 C          64.6781   90.4098   14.2713 C.ar    1  UNL1        0.0505
     25 C          63.8642   90.7076   13.0471 C.ar    1  UNL1        0.0159
     26 C          64.3787   91.6734   12.0210 C.ar    1  UNL1        0.0158
     27 C          65.7070   92.3413   12.2194 C.ar    1  UNL1        0.0480
     28 C          66.5209   92.0435   13.4436 C.ar    1  UNL1        0.0158
     29 C          66.0065   91.0777   14.4696 C.ar    1  UNL1        0.0159
     30 N          66.2215   93.3070   11.1934 N.pl3   1  UNL1       -0.3046
     31 C          65.7700   94.7373   11.2168 C.3     1  UNL1        0.1081
     32 C          66.2845   95.7030   10.1907 C.3     1  UNL1        0.0938
     33 N          67.2504   95.2385    9.1413 N.3     1  UNL1       -0.2686
     34 C          67.7648   96.2042    8.1154 C.3     1  UNL1        0.0897
     35 C          67.7018   93.8082    9.1180 C.3     1  UNL1        0.0938
     36 C          67.1874   92.8425   10.1439 C.3     1  UNL1        0.1081
     37 C          62.4652   82.7653   11.5379 C.3     1  UNL1        0.1553
     38 C          64.6958   82.8136   10.2066 C.2     1  UNL1       -0.0029
     39 C          63.4578   82.0866   10.6412 C.2     1  UNL1        0.0001
@<TRIPOS>BOND
     1    38    39    2
     2    39    37    1
     3    37     1    1
     4     1     2   ar
     5     2     3    2
     6     2     4   ar
     7     4     5   ar
     8     5     6   ar
     9     6     7   ar
    10     7    22    1
    11    22    24    1
    12    24    25   ar
    13    25    26   ar
    14    26    27   ar
    15    27    30    1
    16    30    31    1
    17    31    32    1
    18    32    33    1
    19    33    34    1
    20    33    35    1
    21    35    36    1
    22    27    28   ar
    23    28    29   ar
    24     7     8   ar
    25     8     9   ar
    26     9    10   ar
    27    10    11    1
    28    11    12   ar
    29    12    13   ar
    30    13    14   ar
    31    14    15   ar
    32    15    17    1
    33    17    18    1
    34    17    19    1
    35    17    20    1
    36    15    16   ar
    37    10     1   ar
    38    16    11   ar
    39     9     4   ar
    40    29    24   ar
    41    36    30    1
    42    22    23    1
    43    20    21    1
@<TRIPOS>MOLECULE
*****
 39 43 0 0 0
SMALL
GASTEIGER

@<TRIPOS>ATOM
      1 N          66.4569   92.9219   14.5361 N.ar    1  UNL1       -0.2252
      2 C          65.5325   92.2790   15.5271 C.ar    1  UNL1        0.2800
      3 O          65.5477   92.4891   17.0122 O.2     1  UNL1       -0.2654
      4 C          64.5900   91.3890   14.7722 C.ar    1  UNL1        0.1125
      5 C          63.4646   90.5061   15.2238 C.ar    1  UNL1        0.1097
      6 N          62.6812   89.7161   14.2178 N.ar    1  UNL1       -0.2118
      7 C          63.0232   89.8090   12.7602 C.ar    1  UNL1        0.2221
      8 N          64.1486   90.6919   12.3087 N.ar    1  UNL1       -0.1942
      9 C          64.9320   91.4819   13.3147 C.ar    1  UNL1        0.1726
     10 N          66.0858   92.4292   13.1688 N.ar    1  UNL1       -0.2113
     11 C          66.7516   92.8160   11.8815 C.ar    1  UNL1        0.1633
     12 C          67.8771   91.9854   11.3400 C.ar    1  UNL1        0.0388
     13 C          68.5428   92.3722   10.0527 C.ar    1  UNL1        0.0044
     14 C          68.0831   93.5897    9.3069 C.ar    1  UNL1        0.0172
     15 C          66.9576   94.4204    9.8483 C.ar    1  UNL1        0.0847
     16 N          66.2918   94.0336   11.1356 N.ar    1  UNL1       -0.2286
     17 C          66.4978   95.6379    9.1025 C.3     1  UNL1        0.1233
     18 C          65.7518   96.1012   10.3185 C.3     1  UNL1        0.0355
     19 C          67.2438   95.1746    7.8863 C.3     1  UNL1        0.0355
     20 O          66.0381   96.8554    8.3566 O.3     1  UNL1       -0.3812
     21 H          65.4841   97.4003    8.9372 H       1  UNL1        0.2107
     22 N          62.2397   89.0189   11.7542 N.pl3   1  UNL1       -0.2825
     23 H          61.6631   89.4828   11.1050 H       1  UNL1        0.1551
     24 C          62.3348   87.5220   11.7374 C.ar    1  UNL1        0.0505
     25 C          63.1655   86.8117   12.7648 C.ar    1  UNL1        0.0159
     26 C          63.2606   85.3148   12.7479 C.ar    1  UNL1        0.0158
     27 C          62.5251   84.5282   11.7038 C.ar    1  UNL1        0.0480
     28 C          61.6944   85.2386   10.6764 C.ar    1  UNL1        0.0158
     29 C          61.5993   86.7354   10.6932 C.ar    1  UNL1        0.0159
     30 N          62.6202   83.0314   11.6870 N.pl3   1  UNL1       -0.3046
     31 C          63.0903   82.3235   10.4508 C.3     1  UNL1        0.1081
     32 C          63.1854   80.8266   10.4341 C.3     1  UNL1        0.0938
     33 N          62.8104   80.0376   11.6534 N.3     1  UNL1       -0.2686
     34 C          62.9055   78.5407   11.6366 C.3     1  UNL1        0.0897
     35 C          62.3404   80.7454   12.8895 C.3     1  UNL1        0.0938
     36 C          62.2452   82.2423   12.9063 C.3     1  UNL1        0.1081
     37 C          67.5590   93.8878   14.8562 C.3     1  UNL1        0.1553
     38 C          68.9256   92.0661   16.1067 C.2     1  UNL1       -0.0029
     39 C          68.6222   93.5116   15.8452 C.2     1  UNL1        0.0001
@<TRIPOS>BOND
     1    38    39    2
     2    39    37    1
     3    37     1    1
     4     1     2   ar
     5     2     3    2
     6     2     4   ar
     7     4     5   ar
     8     5     6   ar
     9     6     7   ar
    10     7    22    1
    11    22    24    1
    12    24    25   ar
    13    25    26   ar
    14    26    27   ar
    15    27    30    1
    16    30    31    1
    17    31    32    1
    18    32    33    1
    19    33    34    1
    20    33    35    1
    21    35    36    1
    22    27    28   ar
    23    28    29   ar
    24     7     8   ar
    25     8     9   ar
    26     9    10   ar
    27    10    11    1
    28    11    12   ar
    29    12    13   ar
    30    13    14   ar
    31    14    15   ar
    32    15    17    1
    33    17    18    1
    34    17    19    1
    35    17    20    1
    36    15    16   ar
    37    10     1   ar
    38    16    11   ar
    39     9     4   ar
    40    29    24   ar
    41    36    30    1
    42    22    23    1
    43    20    21    1
