@<TRIPOS>MOLECULE
*****
 28 30 0 0 0
SMALL
GASTEIGER

@<TRIPOS>ATOM
      1 N          62.2474   89.5175   10.8956 N.3     1  UNL1       -0.2725
      2 C          61.0674   89.9689   10.0871 C.3     1  UNL1        0.0722
      3 C          60.0608   88.9667    9.6052 C.3     1  UNL1        0.0191
      4 C          60.2342   87.5130    9.9317 C.3     1  UNL1        0.0224
      5 C          61.4142   87.0615   10.7402 C.3     1  UNL1        0.0878
      6 C          62.4208   88.0638   11.2221 C.3     1  UNL1        0.0918
      7 C          66.2739   93.5264   12.8232 C.2     1  UNL1        0.4049
      8 O          66.8311   94.5456   11.8742 O.2     1  UNL1       -0.2262
      9 N          65.2673   92.5242   12.3413 N.am    1  UNL1       -0.2459
     10 C          64.7101   91.5050   13.2903 C.3     1  UNL1        0.0981
     11 C          63.7034   90.5028   12.8084 C.3     1  UNL1        0.0376
     12 C          63.2540   90.5197   11.3775 C.3     1  UNL1        0.0610
     13 C          63.8113   91.5389   10.4284 C.3     1  UNL1        0.0376
     14 C          64.8179   92.5411   10.9103 C.3     1  UNL1        0.0981
     15 O          66.7233   93.5095   14.2542 O.3     1  UNL1       -0.4345
     16 C          68.1415   92.3341   16.0865 C.3     1  UNL1        0.0513
     17 C          67.9331   92.7164   14.6510 C.3     1  UNL1        0.2102
     18 N          61.5876   85.6078   11.0668 N.am    1  UNL1       -0.3011
     19 C          62.5246   85.1917   12.1618 C.2     1  UNL1        0.2455
     20 O          63.2881   86.2294   12.9302 O.2     1  UNL1       -0.2702
     21 H          61.0865   84.9268   10.5625 H       1  UNL1        0.1497
     22 C          62.6981   83.7381   12.4885 C.ar    1  UNL1        0.0494
     23 C          62.2139   83.2018   13.8030 C.ar    1  UNL1        0.0042
     24 C          62.3874   81.7480   14.1296 C.ar    1  UNL1        0.0001
     25 C          63.0451   80.8307   13.1417 C.ar    1  UNL1       -0.0003
     26 C          63.5293   81.3670   11.8272 C.ar    1  UNL1       -0.0041
     27 C          63.3558   82.8207   11.5006 C.ar    1  UNL1       -0.0175
     28 C          63.8400   83.3570   10.1861 C.3     1  UNL1        0.0312
@<TRIPOS>BOND
     1    16    17    1
     2    17    15    1
     3    15     7    1
     4     7     8    2
     5     7     9   am
     6     9    10    1
     7    10    11    1
     8    11    12    1
     9    12     1    1
    10     1     2    1
    11     2     3    1
    12     3     4    1
    13     4     5    1
    14     5    18    1
    15    18    19   am
    16    19    20    2
    17    19    22    1
    18    22    23   ar
    19    23    24   ar
    20    24    25   ar
    21    25    26   ar
    22    26    27   ar
    23    27    28    1
    24     5     6    1
    25    12    13    1
    26    13    14    1
    27    14     9    1
    28     6     1    1
    29    27    22   ar
    30    18    21    1
@<TRIPOS>MOLECULE
*****
 28 30 0 0 0
SMALL
GASTEIGER

@<TRIPOS>ATOM
      1 N          62.1936   89.5811   10.9212 N.3     1  UNL1       -0.2725
      2 C          60.9600   90.0360   10.1993 C.3     1  UNL1        0.0722
      3 C          59.9287   89.0341    9.7718 C.3     1  UNL1        0.0191
      4 C          60.1311   87.5773   10.0662 C.3     1  UNL1        0.0224
      5 C          61.3647   87.1224   10.7881 C.3     1  UNL1        0.0878
      6 C          62.3960   88.1243   11.2156 C.3     1  UNL1        0.0918
      7 C          66.3186   93.5886   12.6312 C.2     1  UNL1        0.4049
      8 O          66.7866   93.6219   14.0559 O.2     1  UNL1       -0.2262
      9 N          65.2874   92.5867   12.2037 N.am    1  UNL1       -0.2459
     10 C          64.8194   92.5534   10.7790 C.3     1  UNL1        0.0981
     11 C          63.7882   91.5515   10.3515 C.3     1  UNL1        0.0376
     12 C          63.2249   90.5830   11.3487 C.3     1  UNL1        0.0610
     13 C          63.6928   90.6163   12.7734 C.3     1  UNL1        0.0376
     14 C          64.7241   91.6182   13.2009 C.3     1  UNL1        0.0981
     15 O          66.8819   94.5572   11.6340 O.3     1  UNL1       -0.4345
     16 C          65.4818   96.1793   10.1647 C.3     1  UNL1        0.0513
     17 C          66.2286   95.8925   11.4337 C.3     1  UNL1        0.2102
     18 N          61.5672   85.6655   11.0826 N.am    1  UNL1       -0.3011
     19 C          62.5171   85.2439   12.1642 C.2     1  UNL1        0.2455
     20 O          63.2646   86.2792   12.9513 O.2     1  UNL1       -0.2702
     21 H          61.0766   84.9861   10.5659 H       1  UNL1        0.1497
     22 C          62.7196   83.7871   12.4586 C.ar    1  UNL1        0.0494
     23 C          62.2810   83.2203   13.7764 C.ar    1  UNL1        0.0042
     24 C          62.4835   81.7634   14.0708 C.ar    1  UNL1        0.0001
     25 C          63.1245   80.8735   13.0475 C.ar    1  UNL1       -0.0003
     26 C          63.5630   81.4403   11.7298 C.ar    1  UNL1       -0.0041
     27 C          63.3606   82.8971   11.4353 C.ar    1  UNL1       -0.0175
     28 C          63.7991   83.4639   10.1176 C.3     1  UNL1        0.0312
@<TRIPOS>BOND
     1    16    17    1
     2    17    15    1
     3    15     7    1
     4     7     8    2
     5     7     9   am
     6     9    10    1
     7    10    11    1
     8    11    12    1
     9    12     1    1
    10     1     2    1
    11     2     3    1
    12     3     4    1
    13     4     5    1
    14     5    18    1
    15    18    19   am
    16    19    20    2
    17    19    22    1
    18    22    23   ar
    19    23    24   ar
    20    24    25   ar
    21    25    26   ar
    22    26    27   ar
    23    27    28    1
    24     5     6    1
    25    12    13    1
    26    13    14    1
    27    14     9    1
    28     6     1    1
    29    27    22   ar
    30    18    21    1
@<TRIPOS>MOLECULE
*****
 28 30 0 0 0
SMALL
GASTEIGER

@<TRIPOS>ATOM
      1 N          64.0610   88.8432   14.9333 N.3     1  UNL1       -0.2725
      2 C          63.4934   88.9309   16.3190 C.3     1  UNL1        0.0722
      3 C          63.0347   87.6876   17.0217 C.3     1  UNL1        0.0191
      4 C          63.1436   86.3566   16.3387 C.3     1  UNL1        0.0224
      5 C          63.7112   86.2689   14.9530 C.3     1  UNL1        0.0878
      6 C          64.1699   87.5122   14.2503 C.3     1  UNL1        0.0918
      7 C          65.8958   93.8164   12.1225 C.2     1  UNL1        0.4049
      8 O          66.8114   94.7779   12.8205 O.2     1  UNL1       -0.2262
      9 N          65.4371   92.5731   12.8252 N.am    1  UNL1       -0.2459
     10 C          64.5214   91.6117   12.1273 C.3     1  UNL1        0.0981
     11 C          64.0627   90.3683   12.8300 C.3     1  UNL1        0.0376
     12 C          64.5197   90.0865   14.2306 C.3     1  UNL1        0.0610
     13 C          65.4353   91.0480   14.9285 C.3     1  UNL1        0.0376
     14 C          65.8940   92.2913   14.2258 C.3     1  UNL1        0.0981
     15 O          65.4388   94.0983   10.7219 O.3     1  UNL1       -0.4345
     16 C          67.5839   94.3011    9.2701 C.3     1  UNL1        0.0513
     17 C          66.3094   94.8934    9.7947 C.3     1  UNL1        0.2102
     18 N          63.8201   84.9378   14.2700 N.am    1  UNL1       -0.3011
     19 C          62.9519   84.6290   13.0864 C.2     1  UNL1        0.2455
     20 O          61.9748   85.6512   12.5858 O.2     1  UNL1       -0.2702
     21 H          64.4614   84.2669   14.5985 H       1  UNL1        0.1497
     22 C          63.0608   83.2980   12.4033 C.ar    1  UNL1        0.0494
     23 C          63.6841   83.2022   11.0423 C.ar    1  UNL1        0.0042
     24 C          63.7929   81.8711   10.3593 C.ar    1  UNL1        0.0001
     25 C          63.2785   80.6359   11.0372 C.ar    1  UNL1       -0.0003
     26 C          62.6552   80.7317   12.3982 C.ar    1  UNL1       -0.0041
     27 C          62.5463   82.0627   13.0813 C.ar    1  UNL1       -0.0175
     28 C          61.9230   82.1585   14.4423 C.3     1  UNL1        0.0312
@<TRIPOS>BOND
     1    16    17    1
     2    17    15    1
     3    15     7    1
     4     7     8    2
     5     7     9   am
     6     9    10    1
     7    10    11    1
     8    11    12    1
     9    12     1    1
    10     1     2    1
    11     2     3    1
    12     3     4    1
    13     4     5    1
    14     5    18    1
    15    18    19   am
    16    19    20    2
    17    19    22    1
    18    22    23   ar
    19    23    24   ar
    20    24    25   ar
    21    25    26   ar
    22    26    27   ar
    23    27    28    1
    24     5     6    1
    25    12    13    1
    26    13    14    1
    27    14     9    1
    28     6     1    1
    29    27    22   ar
    30    18    21    1
@<TRIPOS>MOLECULE
*****
 28 30 0 0 0
SMALL
GASTEIGER

@<TRIPOS>ATOM
      1 N          63.8365   88.5782   15.0487 N.3     1  UNL1       -0.2725
      2 C          63.4326   88.8830   16.4608 C.3     1  UNL1        0.0722
      3 C          63.0361   87.7697   17.3845 C.3     1  UNL1        0.0191
      4 C          63.0434   86.3514   16.8961 C.3     1  UNL1        0.0224
      5 C          63.4472   86.0466   15.4841 C.3     1  UNL1        0.0878
      6 C          63.8438   87.1599   14.5604 C.3     1  UNL1        0.0918
      7 C          65.4227   93.0316   11.3540 C.2     1  UNL1        0.4049
      8 O          64.6779   93.2412   10.0690 O.2     1  UNL1       -0.2262
      9 N          65.0261   91.9182   12.2777 N.am    1  UNL1       -0.2459
     10 C          65.7709   91.7086   13.5627 C.3     1  UNL1        0.0981
     11 C          65.3744   90.5952   14.4864 C.3     1  UNL1        0.0376
     12 C          64.2330   89.6915   14.1251 C.3     1  UNL1        0.0610
     13 C          63.4882   89.9012   12.8401 C.3     1  UNL1        0.0376
     14 C          63.8848   91.0145   11.9164 C.3     1  UNL1        0.0981
     15 O          66.5641   93.9353   11.7154 O.3     1  UNL1       -0.4345
     16 C          67.5626   94.8824    9.5117 C.3     1  UNL1        0.0513
     17 C          66.9006   95.1054   10.8392 C.3     1  UNL1        0.2102
     18 N          63.4545   84.6283   14.9956 N.am    1  UNL1       -0.3011
     19 C          62.7115   84.2619   13.7452 C.2     1  UNL1        0.2455
     20 O          61.9611   85.3138   12.9831 O.2     1  UNL1       -0.2702
     21 H          63.9470   83.9379   15.4957 H       1  UNL1        0.1497
     22 C          62.7188   82.8437   13.2567 C.ar    1  UNL1        0.0494
     23 C          62.2691   81.7361   14.1628 C.ar    1  UNL1        0.0042
     24 C          62.2764   80.3178   13.6742 C.ar    1  UNL1        0.0001
     25 C          62.7334   80.0072   12.2797 C.ar    1  UNL1       -0.0003
     26 C          63.1830   81.1149   11.3737 C.ar    1  UNL1       -0.0041
     27 C          63.1757   82.5331   11.8621 C.ar    1  UNL1       -0.0175
     28 C          63.6254   83.6407   10.9561 C.3     1  UNL1        0.0312
@<TRIPOS>BOND
     1    16    17    1
     2    17    15    1
     3    15     7    1
     4     7     8    2
     5     7     9   am
     6     9    10    1
     7    10    11    1
     8    11    12    1
     9    12     1    1
    10     1     2    1
    11     2     3    1
    12     3     4    1
    13     4     5    1
    14     5    18    1
    15    18    19   am
    16    19    20    2
    17    19    22    1
    18    22    23   ar
    19    23    24   ar
    20    24    25   ar
    21    25    26   ar
    22    26    27   ar
    23    27    28    1
    24     5     6    1
    25    12    13    1
    26    13    14    1
    27    14     9    1
    28     6     1    1
    29    27    22   ar
    30    18    21    1
@<TRIPOS>MOLECULE
*****
 28 30 0 0 0
SMALL
GASTEIGER

@<TRIPOS>ATOM
      1 N          63.9296   88.6643   14.2791 N.3     1  UNL1       -0.2725
      2 C          63.7408   89.2176   15.6604 C.3     1  UNL1        0.0722
      3 C          63.8963   90.6891   15.9066 C.3     1  UNL1        0.0191
      4 C          64.2407   91.6072   14.7715 C.3     1  UNL1        0.0224
      5 C          64.4295   91.0538   13.3902 C.3     1  UNL1        0.0878
      6 C          64.2740   89.5823   13.1440 C.3     1  UNL1        0.0918
      7 C          63.3075   82.7784   13.2942 C.2     1  UNL1        0.4049
      8 O          63.7922   81.7919   14.3148 O.2     1  UNL1       -0.2262
      9 N          63.4630   84.2499   13.5404 N.am    1  UNL1       -0.2459
     10 C          62.9783   85.2364   12.5198 C.3     1  UNL1        0.0981
     11 C          63.1339   86.7079   12.7660 C.3     1  UNL1        0.0376
     12 C          63.7741   87.1928   14.0328 C.3     1  UNL1        0.0610
     13 C          64.2588   86.2062   15.0534 C.3     1  UNL1        0.0376
     14 C          64.1033   84.7348   14.8072 C.3     1  UNL1        0.0981
     15 O          62.6673   82.2935   12.0273 O.3     1  UNL1       -0.4345
     16 C          64.2662   82.9612   10.0914 C.3     1  UNL1        0.0513
     17 C          63.5207   81.9075   10.8557 C.3     1  UNL1        0.2102
     18 N          64.7739   91.9719   12.2550 N.am    1  UNL1       -0.3011
     19 C          66.1011   92.6704   12.2316 C.2     1  UNL1        0.2455
     20 O          67.0839   92.4509   13.3434 O.2     1  UNL1       -0.2702
     21 H          64.1289   92.1160   11.5253 H       1  UNL1        0.1497
     22 C          66.4456   93.5885   11.0965 C.ar    1  UNL1        0.0494
     23 C          65.8155   94.9472   11.0131 C.ar    1  UNL1        0.0042
     24 C          66.1600   95.8653    9.8779 C.ar    1  UNL1        0.0001
     25 C          67.1345   95.4246    8.8262 C.ar    1  UNL1       -0.0003
     26 C          67.7645   94.0659    8.9096 C.ar    1  UNL1       -0.0041
     27 C          67.4201   93.1479   10.0447 C.ar    1  UNL1       -0.0175
     28 C          68.0502   91.7892   10.1281 C.3     1  UNL1        0.0312
@<TRIPOS>BOND
     1    16    17    1
     2    17    15    1
     3    15     7    1
     4     7     8    2
     5     7     9   am
     6     9    10    1
     7    10    11    1
     8    11    12    1
     9    12     1    1
    10     1     2    1
    11     2     3    1
    12     3     4    1
    13     4     5    1
    14     5    18    1
    15    18    19   am
    16    19    20    2
    17    19    22    1
    18    22    23   ar
    19    23    24   ar
    20    24    25   ar
    21    25    26   ar
    22    26    27   ar
    23    27    28    1
    24     5     6    1
    25    12    13    1
    26    13    14    1
    27    14     9    1
    28     6     1    1
    29    27    22   ar
    30    18    21    1
@<TRIPOS>MOLECULE
*****
 28 30 0 0 0
SMALL
GASTEIGER

@<TRIPOS>ATOM
      1 N          62.1839   87.5207   11.5274 N.3     1  UNL1       -0.2725
      2 C          60.9168   88.0720   10.9439 C.3     1  UNL1        0.0722
      3 C          60.6720   89.5519   10.9457 C.3     1  UNL1        0.0191
      4 C          61.6943   90.4805   11.5310 C.3     1  UNL1        0.0224
      5 C          62.9614   89.9292   12.1145 C.3     1  UNL1        0.0878
      6 C          63.2062   88.4493   12.1127 C.3     1  UNL1        0.0918
      7 C          63.1630   81.6011   11.5203 C.2     1  UNL1        0.4049
      8 O          63.2570   80.8581   10.2207 O.2     1  UNL1       -0.2262
      9 N          62.9182   83.0810   11.5220 N.am    1  UNL1       -0.2459
     10 C          62.8242   83.8241   12.8216 C.3     1  UNL1        0.0981
     11 C          62.5794   85.3040   12.8234 C.3     1  UNL1        0.0376
     12 C          62.4287   86.0408   11.5256 C.3     1  UNL1        0.0610
     13 C          62.5227   85.2977   10.2260 C.3     1  UNL1        0.0376
     14 C          62.7674   83.8179   10.2242 C.3     1  UNL1        0.0981
     15 O          63.3138   80.8643   12.8180 O.3     1  UNL1       -0.4345
     16 C          61.0438   80.9198   14.0807 C.3     1  UNL1        0.0513
     17 C          62.1399   80.1439   13.4123 C.3     1  UNL1        0.2102
     18 N          63.9838   90.8578   12.6998 N.am    1  UNL1       -0.3011
     19 C          64.8057   90.4225   13.8767 C.2     1  UNL1        0.2455
     20 O          64.6052   89.0587   14.4682 O.2     1  UNL1       -0.2702
     21 H          64.1153   91.7529   12.3116 H       1  UNL1        0.1497
     22 C          65.8280   91.3510   14.4620 C.ar    1  UNL1        0.0494
     23 C          67.1194   91.5963   13.7394 C.ar    1  UNL1        0.0042
     24 C          68.1417   92.5249   14.3248 C.ar    1  UNL1        0.0001
     25 C          67.8727   93.2081   15.6328 C.ar    1  UNL1       -0.0003
     26 C          66.5813   92.9628   16.3554 C.ar    1  UNL1       -0.0041
     27 C          65.5590   92.0343   15.7701 C.ar    1  UNL1       -0.0175
     28 C          64.2676   91.7889   16.4927 C.3     1  UNL1        0.0312
@<TRIPOS>BOND
     1    16    17    1
     2    17    15    1
     3    15     7    1
     4     7     8    2
     5     7     9   am
     6     9    10    1
     7    10    11    1
     8    11    12    1
     9    12     1    1
    10     1     2    1
    11     2     3    1
    12     3     4    1
    13     4     5    1
    14     5    18    1
    15    18    19   am
    16    19    20    2
    17    19    22    1
    18    22    23   ar
    19    23    24   ar
    20    24    25   ar
    21    25    26   ar
    22    26    27   ar
    23    27    28    1
    24     5     6    1
    25    12    13    1
    26    13    14    1
    27    14     9    1
    28     6     1    1
    29    27    22   ar
    30    18    21    1
@<TRIPOS>MOLECULE
*****
 28 30 0 0 0
SMALL
GASTEIGER

@<TRIPOS>ATOM
      1 N          63.3742   86.2462   15.3141 N.3     1  UNL1       -0.2725
      2 C          62.8070   86.4548   16.6870 C.3     1  UNL1        0.0722
      3 C          62.9096   87.7990   17.3446 C.3     1  UNL1        0.0191
      4 C          63.5794   88.9347   16.6293 C.3     1  UNL1        0.0224
      5 C          64.1466   88.7261   15.2565 C.3     1  UNL1        0.0878
      6 C          64.0440   87.3819   14.5989 C.3     1  UNL1        0.0918
      7 C          62.9639   80.8692   12.6836 C.2     1  UNL1        0.4049
      8 O          62.1760   79.7728   13.3371 O.2     1  UNL1       -0.2262
      9 N          63.0665   82.2134   13.3413 N.am    1  UNL1       -0.2459
     10 C          63.8544   83.3099   12.6878 C.3     1  UNL1        0.0981
     11 C          63.9570   84.6541   13.3455 C.3     1  UNL1        0.0376
     12 C          63.2716   84.9020   14.6565 C.3     1  UNL1        0.0610
     13 C          62.4837   83.8055   15.3099 C.3     1  UNL1        0.0376
     14 C          62.3812   82.4613   14.6523 C.3     1  UNL1        0.0981
     15 O          63.6492   80.6214   11.3726 O.3     1  UNL1       -0.4345
     16 C          62.8007   78.8665    9.6549 C.3     1  UNL1        0.0513
     17 C          62.8406   80.2797   10.1564 C.3     1  UNL1        0.2102
     18 N          64.8164   89.8619   14.5412 N.am    1  UNL1       -0.3011
     19 C          64.1080   90.5649   13.4214 C.2     1  UNL1        0.2455
     20 O          62.7298   90.1323   13.0169 O.2     1  UNL1       -0.2702
     21 H          65.7209   90.1458   14.8067 H       1  UNL1        0.1497
     22 C          64.7777   91.7006   12.7061 C.ar    1  UNL1        0.0494
     23 C          65.7433   92.5836   13.4395 C.ar    1  UNL1        0.0042
     24 C          66.4131   93.7194   12.7241 C.ar    1  UNL1        0.0001
     25 C          66.1172   93.9719   11.2754 C.ar    1  UNL1       -0.0003
     26 C          65.1516   93.0889   10.5421 C.ar    1  UNL1       -0.0041
     27 C          64.4818   91.9532   11.2574 C.ar    1  UNL1       -0.0175
     28 C          63.5162   91.0702   10.5240 C.3     1  UNL1        0.0312
@<TRIPOS>BOND
     1    16    17    1
     2    17    15    1
     3    15     7    1
     4     7     8    2
     5     7     9   am
     6     9    10    1
     7    10    11    1
     8    11    12    1
     9    12     1    1
    10     1     2    1
    11     2     3    1
    12     3     4    1
    13     4     5    1
    14     5    18    1
    15    18    19   am
    16    19    20    2
    17    19    22    1
    18    22    23   ar
    19    23    24   ar
    20    24    25   ar
    21    25    26   ar
    22    26    27   ar
    23    27    28    1
    24     5     6    1
    25    12    13    1
    26    13    14    1
    27    14     9    1
    28     6     1    1
    29    27    22   ar
    30    18    21    1
@<TRIPOS>MOLECULE
*****
 28 30 0 0 0
SMALL
GASTEIGER

@<TRIPOS>ATOM
      1 N          63.3160   85.9219   15.0718 N.3     1  UNL1       -0.2725
      2 C          62.7328   86.0434   16.4484 C.3     1  UNL1        0.0722
      3 C          62.8513   87.3349   17.2019 C.3     1  UNL1        0.0191
      4 C          63.5530   88.5051   16.5788 C.3     1  UNL1        0.0224
      5 C          64.1362   88.3837   15.2022 C.3     1  UNL1        0.0878
      6 C          64.0177   87.0921   14.4487 C.3     1  UNL1        0.0918
      7 C          62.8418   80.7556   12.0578 C.2     1  UNL1        0.4049
      8 O          62.3816   79.5149   12.7639 O.2     1  UNL1       -0.2262
      9 N          62.9604   82.0472   12.8113 N.am    1  UNL1       -0.2459
     10 C          63.4206   83.2879   12.1051 C.3     1  UNL1        0.0981
     11 C          63.5392   84.5795   12.8586 C.3     1  UNL1        0.0376
     12 C          63.1974   84.6303   14.3183 C.3     1  UNL1        0.0610
     13 C          62.7372   83.3896   15.0244 C.3     1  UNL1        0.0376
     14 C          62.6186   82.0980   14.2709 C.3     1  UNL1        0.0981
     15 O          63.1836   80.7048   10.5981 O.3     1  UNL1       -0.4345
     16 C          62.8335   78.1669   10.1661 C.3     1  UNL1        0.0513
     17 C          62.6519   79.5941    9.7416 C.3     1  UNL1        0.2102
     18 N          64.8380   89.5538   14.5790 N.am    1  UNL1       -0.3011
     19 C          64.1176   90.4195   13.5882 C.2     1  UNL1        0.2455
     20 O          62.6956   90.1150   13.2205 O.2     1  UNL1       -0.2702
     21 H          65.7713   89.7537   14.8203 H       1  UNL1        0.1497
     22 C          64.8193   91.5897   12.9650 C.ar    1  UNL1        0.0494
     23 C          64.6369   91.8831   11.5053 C.ar    1  UNL1        0.0042
     24 C          65.3387   93.0533   10.8821 C.ar    1  UNL1        0.0001
     25 C          66.2227   93.9300   11.7186 C.ar    1  UNL1       -0.0003
     26 C          66.4051   93.6366   13.1783 C.ar    1  UNL1       -0.0041
     27 C          65.7034   92.4664   13.8015 C.ar    1  UNL1       -0.0175
     28 C          65.8858   92.1730   15.2612 C.3     1  UNL1        0.0312
@<TRIPOS>BOND
     1    16    17    1
     2    17    15    1
     3    15     7    1
     4     7     8    2
     5     7     9   am
     6     9    10    1
     7    10    11    1
     8    11    12    1
     9    12     1    1
    10     1     2    1
    11     2     3    1
    12     3     4    1
    13     4     5    1
    14     5    18    1
    15    18    19   am
    16    19    20    2
    17    19    22    1
    18    22    23   ar
    19    23    24   ar
    20    24    25   ar
    21    25    26   ar
    22    26    27   ar
    23    27    28    1
    24     5     6    1
    25    12    13    1
    26    13    14    1
    27    14     9    1
    28     6     1    1
    29    27    22   ar
    30    18    21    1
@<TRIPOS>MOLECULE
*****
 28 30 0 0 0
SMALL
GASTEIGER

@<TRIPOS>ATOM
      1 N          63.5511   87.1945   15.3261 N.3     1  UNL1       -0.2725
      2 C          63.2514   87.5201   16.7593 C.3     1  UNL1        0.0722
      3 C          63.1901   88.9506   17.2065 C.3     1  UNL1        0.0191
      4 C          63.4285   90.0555   16.2204 C.3     1  UNL1        0.0224
      5 C          63.7282   89.7299   14.7872 C.3     1  UNL1        0.0878
      6 C          63.7895   88.2994   14.3401 C.3     1  UNL1        0.0918
      7 C          63.7963   81.4725   13.5376 C.2     1  UNL1        0.4049
      8 O          64.5520   81.1070   12.2945 O.2     1  UNL1       -0.2262
      9 N          63.7350   82.9030   13.9847 N.am    1  UNL1       -0.2459
     10 C          62.9793   83.2685   15.2278 C.3     1  UNL1        0.0981
     11 C          62.9180   84.6990   15.6750 C.3     1  UNL1        0.0376
     12 C          63.6124   85.7640   14.8790 C.3     1  UNL1        0.0610
     13 C          64.3681   85.3985   13.6359 C.3     1  UNL1        0.0376
     14 C          64.4294   83.9680   13.1888 C.3     1  UNL1        0.0981
     15 O          63.1019   80.4076   14.3335 O.3     1  UNL1       -0.4345
     16 C          60.5377   80.7537   14.0994 C.3     1  UNL1        0.0513
     17 C          61.7574   79.9036   13.8997 C.3     1  UNL1        0.2102
     18 N          63.9666   90.8348   13.8011 N.am    1  UNL1       -0.3011
     19 C          65.3473   91.3918   13.6182 C.2     1  UNL1        0.2455
     20 O          66.4896   90.8439   14.4214 O.2     1  UNL1       -0.2702
     21 H          63.2169   91.1944   13.2739 H       1  UNL1        0.1497
     22 C          65.5858   92.4967   12.6321 C.ar    1  UNL1        0.0494
     23 C          65.1390   92.3409   11.2087 C.ar    1  UNL1        0.0042
     24 C          65.3774   93.4458   10.2226 C.ar    1  UNL1        0.0001
     25 C          66.0627   94.7064   10.6599 C.ar    1  UNL1       -0.0003
     26 C          66.5095   94.8622   12.0833 C.ar    1  UNL1       -0.0041
     27 C          66.2710   93.7573   13.0694 C.ar    1  UNL1       -0.0175
     28 C          66.7178   93.9131   14.4928 C.3     1  UNL1        0.0312
@<TRIPOS>BOND
     1    16    17    1
     2    17    15    1
     3    15     7    1
     4     7     8    2
     5     7     9   am
     6     9    10    1
     7    10    11    1
     8    11    12    1
     9    12     1    1
    10     1     2    1
    11     2     3    1
    12     3     4    1
    13     4     5    1
    14     5    18    1
    15    18    19   am
    16    19    20    2
    17    19    22    1
    18    22    23   ar
    19    23    24   ar
    20    24    25   ar
    21    25    26   ar
    22    26    27   ar
    23    27    28    1
    24     5     6    1
    25    12    13    1
    26    13    14    1
    27    14     9    1
    28     6     1    1
    29    27    22   ar
    30    18    21    1
