@<TRIPOS>MOLECULE
*****
 35 38 0 0 0
SMALL
GASTEIGER

@<TRIPOS>ATOM
      1 C          64.0207   87.8902   14.7615 C.ar    1  UNL1        0.1482
      2 C          63.4718   87.7493   16.1504 C.ar    1  UNL1        0.1357
      3 N          63.4022   86.2866   16.4752 N.ar    1  UNL1       -0.2252
      4 C          63.9081   85.5234   15.2871 C.ar    1  UNL1        0.1496
      5 N          64.2903   86.5145   14.2280 N.ar    1  UNL1       -0.3249
      6 H          64.6543   86.2997   13.3388 H       1  UNL1        0.1686
      7 C          64.7333   91.7604   12.5790 C.ar    1  UNL1        0.0569
      8 C          65.4292   91.4944   13.8808 C.ar    1  UNL1        0.0340
      9 C          65.1917   90.2043   14.6083 C.ar    1  UNL1        0.0856
     10 N          64.2582   89.1803   14.0339 N.ar    1  UNL1       -0.2579
     11 C          63.5622   89.4463   12.7321 C.ar    1  UNL1        0.2672
     12 O          62.6287   88.4222   12.1578 O.2     1  UNL1       -0.2665
     13 C          63.7998   90.7363   12.0046 C.ar    1  UNL1        0.0758
     14 O          67.4012   92.3027   11.3187 O.2     1  UNL1       -0.2681
     15 C          66.3047   93.3216   11.2213 C.2     1  UNL1        0.2678
     16 N          64.9708   93.0505   11.8514 N.am    1  UNL1       -0.2790
     17 H          64.2511   93.7193   11.7874 H       1  UNL1        0.1552
     18 C          66.5422   94.6117   10.4937 C.ar    1  UNL1        0.1419
     19 C          65.6125   95.7883   10.4589 C.ar    1  UNL1        0.0607
     20 S          66.2468   96.8555    9.6169 S.2     1  UNL1       -0.0638
     21 C          67.5685   96.3384    9.1314 C.ar    1  UNL1        0.1347
     22 N          67.7511   94.9516    9.6733 N.ar    1  UNL1       -0.2317
     23 C          64.0133   84.0311   15.1773 C.3     1  UNL1        0.1892
     24 O          64.5817   83.2337   16.3136 O.3     1  UNL1       -0.3731
     25 H          64.5782   82.2919   16.0813 H       1  UNL1        0.2113
     26 C          63.5501   83.3362   13.9314 C.ar    1  UNL1        0.0114
     27 C          62.9417   81.9679   14.0178 C.ar    1  UNL1       -0.0015
     28 C          62.4784   81.2730   12.7719 C.ar    1  UNL1       -0.0003
     29 C          62.6237   81.9464   11.4394 C.ar    1  UNL1        0.0038
     30 C          63.2321   83.3147   11.3529 C.ar    1  UNL1        0.0712
     31 C          63.6953   84.0096   12.5989 C.ar    1  UNL1        0.0023
     32 C          63.3773   83.9880   10.0205 C.3     1  UNL1        0.4186
     33 F          63.5225   84.6615    8.6880 F       1  UNL1       -0.1659
     34 F          64.4474   83.0076    9.6415 F       1  UNL1       -0.1659
     35 F          62.3072   84.9686   10.3994 F       1  UNL1       -0.1659
@<TRIPOS>BOND
     1    14    15    2
     2    15    16   am
     3    16     7    1
     4     7     8   ar
     5     8     9   ar
     6     9    10   ar
     7    10     1    1
     8     1     2   ar
     9     2     3   ar
    10     3     4   ar
    11     4    23    1
    12    23    24    1
    13    23    26    1
    14    26    27   ar
    15    27    28   ar
    16    28    29   ar
    17    29    30   ar
    18    30    32    1
    19    32    33    1
    20    32    34    1
    21    32    35    1
    22    30    31   ar
    23     4     5   ar
    24    10    11   ar
    25    11    12    2
    26    11    13   ar
    27    15    18    1
    28    18    19   ar
    29    19    20   ar
    30    20    21   ar
    31    21    22   ar
    32    13     7   ar
    33    22    18   ar
    34     5     1   ar
    35    31    26   ar
    36    16    17    1
    37    24    25    1
    38     5     6    1
@<TRIPOS>MOLECULE
*****
 35 38 0 0 0
SMALL
GASTEIGER

@<TRIPOS>ATOM
      1 C          63.8448   87.6321   14.5150 C.ar    1  UNL1        0.1482
      2 C          63.7726   87.3507   15.9866 C.ar    1  UNL1        0.1357
      3 N          63.4920   85.8880   16.1656 N.ar    1  UNL1       -0.2252
      4 C          63.3909   85.2655   14.8045 C.ar    1  UNL1        0.1496
      5 N          63.6089   86.3434   13.7844 N.ar    1  UNL1       -0.3249
      6 H          63.5990   86.2258   12.8071 H       1  UNL1        0.1686
      7 C          64.6312   91.6390   12.6239 C.ar    1  UNL1        0.0569
      8 C          65.2993   91.2758   13.9169 C.ar    1  UNL1        0.0340
      9 C          65.0372   89.9402   14.5472 C.ar    1  UNL1        0.0856
     10 N          64.1069   88.9678   13.8846 N.ar    1  UNL1       -0.2579
     11 C          63.4388   89.3310   12.5916 C.ar    1  UNL1        0.2672
     12 O          62.5086   88.3586   11.9290 O.2     1  UNL1       -0.2665
     13 C          63.7010   90.6666   11.9613 C.ar    1  UNL1        0.0758
     14 O          67.0058   92.0103   10.8285 O.2     1  UNL1       -0.2681
     15 C          66.0806   93.1603   11.0959 C.2     1  UNL1        0.2678
     16 N          64.8933   92.9747   11.9936 N.am    1  UNL1       -0.2790
     17 H          64.2861   93.7295   12.1690 H       1  UNL1        0.1552
     18 C          66.3427   94.4960   10.4655 C.ar    1  UNL1        0.1419
     19 C          65.3776   95.6421   10.3947 C.ar    1  UNL1        0.0607
     20 S          66.0543   96.7745    9.6807 S.2     1  UNL1       -0.0638
     21 C          67.4377   96.3282    9.3103 C.ar    1  UNL1        0.1347
     22 N          67.6159   94.9201    9.7953 N.ar    1  UNL1       -0.2317
     23 C          63.1194   83.8191   14.5146 C.3     1  UNL1        0.1892
     24 O          62.6762   82.9035   15.6169 O.3     1  UNL1       -0.3731
     25 H          62.5456   82.0101   15.2624 H       1  UNL1        0.2113
     26 C          63.2911   83.2882   13.1222 C.ar    1  UNL1        0.0114
     27 C          63.7727   84.1944   12.0282 C.ar    1  UNL1       -0.0015
     28 C          63.9443   83.6635   10.6358 C.ar    1  UNL1       -0.0003
     29 C          63.6344   82.2265   10.3375 C.ar    1  UNL1        0.0038
     30 C          63.1529   81.3203   11.4315 C.ar    1  UNL1        0.0712
     31 C          62.9812   81.8512   12.8239 C.ar    1  UNL1        0.0023
     32 C          62.8430   79.8834   11.1333 C.3     1  UNL1        0.4186
     33 F          62.5332   78.4464   10.8349 F       1  UNL1       -0.1659
     34 F          62.5796   79.6378   12.5894 F       1  UNL1       -0.1659
     35 F          63.1065   80.1289    9.6771 F       1  UNL1       -0.1659
@<TRIPOS>BOND
     1    14    15    2
     2    15    16   am
     3    16     7    1
     4     7     8   ar
     5     8     9   ar
     6     9    10   ar
     7    10     1    1
     8     1     2   ar
     9     2     3   ar
    10     3     4   ar
    11     4    23    1
    12    23    24    1
    13    23    26    1
    14    26    27   ar
    15    27    28   ar
    16    28    29   ar
    17    29    30   ar
    18    30    32    1
    19    32    33    1
    20    32    34    1
    21    32    35    1
    22    30    31   ar
    23     4     5   ar
    24    10    11   ar
    25    11    12    2
    26    11    13   ar
    27    15    18    1
    28    18    19   ar
    29    19    20   ar
    30    20    21   ar
    31    21    22   ar
    32    13     7   ar
    33    22    18   ar
    34     5     1   ar
    35    31    26   ar
    36    16    17    1
    37    24    25    1
    38     5     6    1
@<TRIPOS>MOLECULE
*****
 35 38 0 0 0
SMALL
GASTEIGER

@<TRIPOS>ATOM
      1 C          64.6343   90.0278   14.4191 C.ar    1  UNL1        0.1482
      2 C          64.0913   90.8463   15.5528 C.ar    1  UNL1        0.1357
      3 N          64.7276   92.2032   15.4912 N.ar    1  UNL1       -0.2252
      4 C          65.6638   92.2234   14.3193 C.ar    1  UNL1        0.1496
      5 N          65.6062   90.8789   13.6568 N.ar    1  UNL1       -0.3249
      6 H          66.1166   90.6034   12.8613 H       1  UNL1        0.1686
      7 C          63.5398   85.7670   13.4714 C.ar    1  UNL1        0.0569
      8 C          64.2981   86.0853   14.7259 C.ar    1  UNL1        0.0340
      9 C          64.6629   87.5056   15.0417 C.ar    1  UNL1        0.0856
     10 N          64.2695   88.6075   14.1031 N.ar    1  UNL1       -0.2579
     11 C          63.5112   88.2892   12.8487 C.ar    1  UNL1        0.2672
     12 O          63.1178   89.3911   11.9101 O.2     1  UNL1       -0.2665
     13 C          63.1464   86.8690   12.5328 C.ar    1  UNL1        0.0758
     14 O          62.5785   83.9446   15.6519 O.2     1  UNL1       -0.2681
     15 C          62.6943   83.4356   14.2457 C.2     1  UNL1        0.2678
     16 N          63.1750   84.3467   13.1555 N.am    1  UNL1       -0.2790
     17 H          63.2510   84.0126   12.2325 H       1  UNL1        0.1552
     18 C          62.3295   82.0153   13.9298 C.ar    1  UNL1        0.1419
     19 C          63.1552   81.0493   13.1329 C.ar    1  UNL1        0.0607
     20 S          62.4110   79.7486   13.0659 S.2     1  UNL1       -0.0638
     21 C          61.1253   79.9109   13.8214 C.ar    1  UNL1        0.1347
     22 N          61.0749   81.3117   14.3553 N.ar    1  UNL1       -0.2317
     23 C          66.5093   93.3843   13.8862 C.3     1  UNL1        0.1892
     24 O          67.2806   94.1713   14.9038 O.3     1  UNL1       -0.3731
     25 H          67.7705   94.8812   14.4600 H       1  UNL1        0.2113
     26 C          66.5834   93.7580   12.4354 C.ar    1  UNL1        0.0114
     27 C          65.8498   94.9664   11.9338 C.ar    1  UNL1       -0.0015
     28 C          65.9239   95.3402   10.4831 C.ar    1  UNL1       -0.0003
     29 C          66.7317   94.5056    9.5339 C.ar    1  UNL1        0.0038
     30 C          67.4654   93.2972   10.0354 C.ar    1  UNL1        0.0712
     31 C          67.3912   92.9234   11.4862 C.ar    1  UNL1        0.0023
     32 C          68.2731   92.4627    9.0863 C.3     1  UNL1        0.4186
     33 F          69.0809   91.6281    8.1371 F       1  UNL1       -0.1659
     34 F          68.1065   93.5089    8.0244 F       1  UNL1       -0.1659
     35 F          68.4398   91.4164   10.1481 F       1  UNL1       -0.1659
@<TRIPOS>BOND
     1    14    15    2
     2    15    16   am
     3    16     7    1
     4     7     8   ar
     5     8     9   ar
     6     9    10   ar
     7    10     1    1
     8     1     2   ar
     9     2     3   ar
    10     3     4   ar
    11     4    23    1
    12    23    24    1
    13    23    26    1
    14    26    27   ar
    15    27    28   ar
    16    28    29   ar
    17    29    30   ar
    18    30    32    1
    19    32    33    1
    20    32    34    1
    21    32    35    1
    22    30    31   ar
    23     4     5   ar
    24    10    11   ar
    25    11    12    2
    26    11    13   ar
    27    15    18    1
    28    18    19   ar
    29    19    20   ar
    30    20    21   ar
    31    21    22   ar
    32    13     7   ar
    33    22    18   ar
    34     5     1   ar
    35    31    26   ar
    36    16    17    1
    37    24    25    1
    38     5     6    1
@<TRIPOS>MOLECULE
*****
 35 38 0 0 0
SMALL
GASTEIGER

@<TRIPOS>ATOM
      1 C          59.9379   91.4213    4.6319 C.ar    1  UNL1        0.1482
      2 C          58.4893   91.6317    4.9596 C.ar    1  UNL1        0.1357
      3 N          58.1035   90.6373    6.0143 N.ar    1  UNL1       -0.2252
      4 C          59.3136   89.8123    6.3383 C.ar    1  UNL1        0.1496
      5 N          60.4473   90.2968    5.4840 N.ar    1  UNL1       -0.3249
      6 H          61.3647   89.9395    5.4827 H       1  UNL1        0.1686
      7 C          62.3343   93.7540    1.6210 C.ar    1  UNL1        0.0569
      8 C          60.9081   94.1280    1.8965 C.ar    1  UNL1        0.0340
      9 C          60.1093   93.3504    2.9001 C.ar    1  UNL1        0.0856
     10 N          60.7367   92.1988    3.6282 N.ar    1  UNL1       -0.2579
     11 C          62.1630   91.8248    3.3527 C.ar    1  UNL1        0.2672
     12 O          62.7904   90.6733    4.0808 O.2     1  UNL1       -0.2665
     13 C          62.9617   92.6024    2.3491 C.ar    1  UNL1        0.0758
     14 O          62.2018   93.0300   -1.2874 O.2     1  UNL1       -0.2681
     15 C          63.0669   94.1695   -0.8368 C.2     1  UNL1        0.2678
     16 N          63.1332   94.5316    0.6173 N.am    1  UNL1       -0.2790
     17 H          63.7009   95.2795    0.9130 H       1  UNL1        0.1552
     18 C          63.8657   94.9471   -1.8405 C.ar    1  UNL1        0.1419
     19 C          63.7847   94.8063   -3.3317 C.ar    1  UNL1        0.0607
     20 S          64.7548   95.7742   -3.9420 S.2     1  UNL1       -0.0638
     21 C          65.4352   96.5131   -2.8279 C.ar    1  UNL1        0.1347
     22 N          64.8858   96.0019   -1.5292 N.ar    1  UNL1       -0.2317
     23 C          59.3786   88.6983    7.3408 C.3     1  UNL1        0.1892
     24 O          58.5852   87.4444    7.1211 O.3     1  UNL1       -0.3731
     25 H          58.7392   86.8313    7.8568 H       1  UNL1        0.2113
     26 C          60.2371   88.8382    8.5628 C.ar    1  UNL1        0.0114
     27 C          60.5450   90.2000    9.1112 C.ar    1  UNL1       -0.0015
     28 C          61.4035   90.3399   10.3332 C.ar    1  UNL1       -0.0003
     29 C          61.9540   89.1180   11.0070 C.ar    1  UNL1        0.0038
     30 C          61.6460   87.7562   10.4586 C.ar    1  UNL1        0.0712
     31 C          60.7876   87.6163    9.2366 C.ar    1  UNL1        0.0023
     32 C          62.1965   86.5344   11.1323 C.3     1  UNL1        0.4186
     33 F          62.7470   85.3124   11.8061 F       1  UNL1       -0.1659
     34 F          63.1404   87.3938   11.9200 F       1  UNL1       -0.1659
     35 F          61.2527   85.6748   10.3447 F       1  UNL1       -0.1659
@<TRIPOS>BOND
     1    14    15    2
     2    15    16   am
     3    16     7    1
     4     7     8   ar
     5     8     9   ar
     6     9    10   ar
     7    10     1    1
     8     1     2   ar
     9     2     3   ar
    10     3     4   ar
    11     4    23    1
    12    23    24    1
    13    23    26    1
    14    26    27   ar
    15    27    28   ar
    16    28    29   ar
    17    29    30   ar
    18    30    32    1
    19    32    33    1
    20    32    34    1
    21    32    35    1
    22    30    31   ar
    23     4     5   ar
    24    10    11   ar
    25    11    12    2
    26    11    13   ar
    27    15    18    1
    28    18    19   ar
    29    19    20   ar
    30    20    21   ar
    31    21    22   ar
    32    13     7   ar
    33    22    18   ar
    34     5     1   ar
    35    31    26   ar
    36    16    17    1
    37    24    25    1
    38     5     6    1
@<TRIPOS>MOLECULE
*****
 35 38 0 0 0
SMALL
GASTEIGER

@<TRIPOS>ATOM
      1 C          59.4611   89.3272    6.7904 C.ar    1  UNL1        0.1482
      2 C          58.5127   88.1658    6.7471 C.ar    1  UNL1        0.1357
      3 N          58.7566   87.3226    7.9635 N.ar    1  UNL1       -0.2252
      4 C          59.8557   87.9630    8.7586 C.ar    1  UNL1        0.1496
      5 N          60.2910   89.2018    8.0336 N.ar    1  UNL1       -0.3249
      6 H          60.9975   89.8235    8.3228 H       1  UNL1        0.1686
      7 C          59.7631   92.6110    3.7284 C.ar    1  UNL1        0.0569
      8 C          61.0022   91.9107    4.2019 C.ar    1  UNL1        0.0340
      9 C          60.9015   90.8162    5.2225 C.ar    1  UNL1        0.0856
     10 N          59.5617   90.4218    5.7697 N.ar    1  UNL1       -0.2579
     11 C          58.3226   91.1221    5.2963 C.ar    1  UNL1        0.2672
     12 O          56.9828   90.7278    5.8435 O.2     1  UNL1       -0.2665
     13 C          58.4233   92.2167    4.2756 C.ar    1  UNL1        0.0758
     14 O          60.0913   91.9294    0.8254 O.2     1  UNL1       -0.2681
     15 C          60.0279   93.3648    1.2562 C.2     1  UNL1        0.2678
     16 N          59.8638   93.7056    2.7077 N.am    1  UNL1       -0.2790
     17 H          59.8221   94.6477    2.9905 H       1  UNL1        0.1552
     18 C          60.1285   94.4594    0.2355 C.ar    1  UNL1        0.1419
     19 C          59.3648   95.7504    0.2491 C.ar    1  UNL1        0.0607
     20 S          59.7748   96.5441   -0.9560 S.2     1  UNL1       -0.0638
     21 C          60.7919   95.7436   -1.7141 C.ar    1  UNL1        0.1347
     22 N          61.0105   94.4552   -0.9777 N.ar    1  UNL1       -0.2317
     23 C          60.4203   87.4538   10.0516 C.3     1  UNL1        0.1892
     24 O          59.9588   88.0387   11.3535 O.3     1  UNL1       -0.3731
     25 H          60.4192   87.6004   12.0862 H       1  UNL1        0.2113
     26 C          61.4463   86.3596   10.0428 C.ar    1  UNL1        0.0114
     27 C          62.1810   86.0307    8.7772 C.ar    1  UNL1       -0.0015
     28 C          63.2071   84.9365    8.7683 C.ar    1  UNL1       -0.0003
     29 C          63.4983   84.1713   10.0252 C.ar    1  UNL1        0.0038
     30 C          62.7635   84.5002   11.2909 C.ar    1  UNL1        0.0712
     31 C          61.7375   85.5944   11.2997 C.ar    1  UNL1        0.0023
     32 C          63.0547   83.7350   12.5476 C.3     1  UNL1        0.4186
     33 F          63.3460   82.9698   13.8044 F       1  UNL1       -0.1659
     34 F          63.8072   84.9135   13.0909 F       1  UNL1       -0.1659
     35 F          62.3023   82.5565   12.0044 F       1  UNL1       -0.1659
@<TRIPOS>BOND
     1    14    15    2
     2    15    16   am
     3    16     7    1
     4     7     8   ar
     5     8     9   ar
     6     9    10   ar
     7    10     1    1
     8     1     2   ar
     9     2     3   ar
    10     3     4   ar
    11     4    23    1
    12    23    24    1
    13    23    26    1
    14    26    27   ar
    15    27    28   ar
    16    28    29   ar
    17    29    30   ar
    18    30    32    1
    19    32    33    1
    20    32    34    1
    21    32    35    1
    22    30    31   ar
    23     4     5   ar
    24    10    11   ar
    25    11    12    2
    26    11    13   ar
    27    15    18    1
    28    18    19   ar
    29    19    20   ar
    30    20    21   ar
    31    21    22   ar
    32    13     7   ar
    33    22    18   ar
    34     5     1   ar
    35    31    26   ar
    36    16    17    1
    37    24    25    1
    38     5     6    1
@<TRIPOS>MOLECULE
*****
 35 38 0 0 0
SMALL
GASTEIGER

@<TRIPOS>ATOM
      1 C          62.3810   84.9799   11.2851 C.ar    1  UNL1        0.1482
      2 C          63.0363   83.6448   11.0896 C.ar    1  UNL1        0.1357
      3 N          63.6586   83.2387   12.3926 N.ar    1  UNL1       -0.2252
      4 C          63.3879   84.3228   13.3934 C.ar    1  UNL1        0.1496
      5 N          62.5983   85.3989   12.7088 N.ar    1  UNL1       -0.3249
      6 H          62.2788   86.2337   13.1216 H       1  UNL1        0.1686
      7 C          60.1543   87.3175    8.1502 C.ar    1  UNL1        0.0569
      8 C          60.9655   86.1188    7.7567 C.ar    1  UNL1        0.0340
      9 C          61.7077   85.3396    8.8016 C.ar    1  UNL1        0.0856
     10 N          61.6387   85.7592   10.2401 N.ar    1  UNL1       -0.2579
     11 C          60.8275   86.9579   10.6336 C.ar    1  UNL1        0.2672
     12 O          60.7586   87.3775   12.0721 O.2     1  UNL1       -0.2665
     13 C          60.0853   87.7371    9.5887 C.ar    1  UNL1        0.0758
     14 O          60.1456   90.3162    8.2392 O.2     1  UNL1       -0.2681
     15 C          59.4077   89.5961    7.1498 C.2     1  UNL1        0.2678
     16 N          59.4120   88.0968    7.1053 N.am    1  UNL1       -0.2790
     17 H          58.9277   87.6241    6.3902 H       1  UNL1        0.1552
     18 C          58.6654   90.3753    6.1048 C.ar    1  UNL1        0.1419
     19 C          59.2795   91.2777    5.0760 C.ar    1  UNL1        0.0607
     20 S          58.1724   91.8491    4.2405 S.2     1  UNL1       -0.0638
     21 C          56.8741   91.2997    4.7531 C.ar    1  UNL1        0.1347
     22 N          57.1788   90.3889    5.9053 N.ar    1  UNL1       -0.2317
     23 C          63.8293   84.3296   14.8269 C.3     1  UNL1        0.1892
     24 O          64.5491   83.1429   15.3957 O.3     1  UNL1       -0.3731
     25 H          64.7617   83.3096   16.3273 H       1  UNL1        0.2113
     26 C          63.5509   85.5231   15.6918 C.ar    1  UNL1        0.0114
     27 C          62.9000   85.3433   17.0312 C.ar    1  UNL1       -0.0015
     28 C          62.6216   86.5368   17.8960 C.ar    1  UNL1       -0.0003
     29 C          62.9940   87.9102   17.4214 C.ar    1  UNL1        0.0038
     30 C          63.6448   88.0900   16.0820 C.ar    1  UNL1        0.0712
     31 C          63.9233   86.8965   15.2172 C.ar    1  UNL1        0.0023
     32 C          64.0172   89.4633   15.6075 C.3     1  UNL1        0.4186
     33 F          64.3896   90.8367   15.1329 F       1  UNL1       -0.1659
     34 F          64.6838   88.8666   14.4035 F       1  UNL1       -0.1659
     35 F          63.3507   90.0601   16.8115 F       1  UNL1       -0.1659
@<TRIPOS>BOND
     1    14    15    2
     2    15    16   am
     3    16     7    1
     4     7     8   ar
     5     8     9   ar
     6     9    10   ar
     7    10     1    1
     8     1     2   ar
     9     2     3   ar
    10     3     4   ar
    11     4    23    1
    12    23    24    1
    13    23    26    1
    14    26    27   ar
    15    27    28   ar
    16    28    29   ar
    17    29    30   ar
    18    30    32    1
    19    32    33    1
    20    32    34    1
    21    32    35    1
    22    30    31   ar
    23     4     5   ar
    24    10    11   ar
    25    11    12    2
    26    11    13   ar
    27    15    18    1
    28    18    19   ar
    29    19    20   ar
    30    20    21   ar
    31    21    22   ar
    32    13     7   ar
    33    22    18   ar
    34     5     1   ar
    35    31    26   ar
    36    16    17    1
    37    24    25    1
    38     5     6    1
