@<TRIPOS>MOLECULE
*****
 24 27 0 0 0
SMALL
GASTEIGER

@<TRIPOS>ATOM
      1 C          64.6898   91.6309   12.4976 C.2     1  UNL1       -0.0420
      2 C          63.6802   90.8289   13.2640 C.2     1  UNL1       -0.0240
      3 C          62.6437   90.3413   12.2956 C.ar    1  UNL1       -0.0078
      4 C          61.4115   89.5061   12.4804 C.ar    1  UNL1       -0.0006
      5 C          60.5484   89.1714   11.3002 C.ar    1  UNL1       -0.0000
      6 C          60.9174   89.6720    9.9352 C.ar    1  UNL1       -0.0003
      7 C          62.1496   90.5072    9.7504 C.ar    1  UNL1       -0.0040
      8 C          63.0127   90.8418   10.9306 C.ar    1  UNL1       -0.0184
      9 C          64.2773   91.6388   11.0554 C.3     1  UNL1        0.0480
     10 C          65.8996   92.3063   13.0723 C.3     1  UNL1        0.0394
     11 C          66.4814   93.5094   12.3912 C.3     1  UNL1        0.0768
     12 F          67.9526   94.0252    7.8507 F       1  UNL1       -0.2013
     13 C          67.9519   93.1909    9.0973 C.3     1  UNL1        0.2928
     14 F          68.8128   92.1698    8.4142 F       1  UNL1       -0.2013
     15 C          67.9514   92.3564   10.3437 C.3     1  UNL1        0.1410
     16 N          67.0905   93.3775   11.0268 N.3     1  UNL1       -0.2632
     17 C          67.0912   94.2118    9.7803 C.3     1  UNL1        0.1410
     18 C          63.7030   90.5616   14.7398 C.3     1  UNL1        0.0730
     19 C          63.6803   89.1500   15.2468 C.ar    1  UNL1        0.0825
     20 C          63.0347   88.8364   16.5640 C.ar    1  UNL1        0.1139
     21 N          63.0120   87.4249   17.0709 N.ar    1  UNL1       -0.2394
     22 C          63.6348   86.3269   16.2607 C.ar    1  UNL1        0.1195
     23 C          64.2803   86.6405   14.9435 C.ar    1  UNL1        0.1191
     24 N          64.3031   88.0520   14.4365 N.ar    1  UNL1       -0.2446
@<TRIPOS>BOND
     1    12    13    1
     2    13    14    1
     3    13    15    1
     4    15    16    1
     5    16    11    1
     6    11    10    1
     7    10     1    1
     8     1     2    2
     9     2    18    1
    10    18    19    1
    11    19    20   ar
    12    20    21   ar
    13    21    22   ar
    14    22    23   ar
    15    23    24   ar
    16     2     3    1
    17     3     4   ar
    18     4     5   ar
    19     5     6   ar
    20     6     7   ar
    21     7     8   ar
    22     8     9    1
    23    16    17    1
    24    17    13    1
    25     9     1    1
    26    24    19   ar
    27     8     3   ar
@<TRIPOS>MOLECULE
*****
 24 27 0 0 0
SMALL
GASTEIGER

@<TRIPOS>ATOM
      1 C          63.4355   90.2271   12.4630 C.2     1  UNL1       -0.0420
      2 C          63.6954   88.8478   12.9921 C.2     1  UNL1       -0.0240
      3 C          62.9904   87.8689   12.1006 C.ar    1  UNL1       -0.0078
      4 C          62.8921   86.3725   12.1327 C.ar    1  UNL1       -0.0006
      5 C          62.0982   85.6504   11.0848 C.ar    1  UNL1       -0.0000
      6 C          61.4026   86.4247   10.0047 C.ar    1  UNL1       -0.0003
      7 C          61.5009   87.9211    9.9725 C.ar    1  UNL1       -0.0040
      8 C          62.2949   88.6432   11.0205 C.ar    1  UNL1       -0.0184
      9 C          62.5699   90.1007   11.2445 C.3     1  UNL1        0.0480
     10 C          63.9506   91.5080   13.0495 C.3     1  UNL1        0.0394
     11 C          65.3531   91.9546   12.7605 C.3     1  UNL1        0.0768
     12 F          68.1097   94.1312   16.0331 F       1  UNL1       -0.2013
     13 C          67.5675   92.8449   15.4840 C.3     1  UNL1        0.2928
     14 F          68.3225   92.0800   16.5305 F       1  UNL1       -0.2013
     15 C          67.0253   91.5585   14.9351 C.3     1  UNL1        0.1410
     16 N          66.2703   92.3233   13.8886 N.3     1  UNL1       -0.2632
     17 C          66.8125   93.6096   14.4376 C.3     1  UNL1        0.1410
     18 C          64.5161   88.5072   14.2006 C.3     1  UNL1        0.0730
     19 C          63.8852   87.7917   15.3583 C.ar    1  UNL1        0.0825
     20 C          63.3221   88.5747   16.5071 C.ar    1  UNL1        0.1139
     21 N          62.6913   87.8593   17.6648 N.ar    1  UNL1       -0.2394
     22 C          62.6236   86.3608   17.6736 C.ar    1  UNL1        0.1195
     23 C          63.1868   85.5778   16.5248 C.ar    1  UNL1        0.1191
     24 N          63.8176   86.2932   15.3671 N.ar    1  UNL1       -0.2446
@<TRIPOS>BOND
     1    12    13    1
     2    13    14    1
     3    13    15    1
     4    15    16    1
     5    16    11    1
     6    11    10    1
     7    10     1    1
     8     1     2    2
     9     2    18    1
    10    18    19    1
    11    19    20   ar
    12    20    21   ar
    13    21    22   ar
    14    22    23   ar
    15    23    24   ar
    16     2     3    1
    17     3     4   ar
    18     4     5   ar
    19     5     6   ar
    20     6     7   ar
    21     7     8   ar
    22     8     9    1
    23    16    17    1
    24    17    13    1
    25     9     1    1
    26    24    19   ar
    27     8     3   ar
@<TRIPOS>MOLECULE
*****
 24 27 0 0 0
SMALL
GASTEIGER

@<TRIPOS>ATOM
      1 C          63.8799   89.6173   13.3024 C.2     1  UNL1       -0.0420
      2 C          63.8250   88.1250   13.4438 C.2     1  UNL1       -0.0240
      3 C          63.0470   87.5777   12.2839 C.ar    1  UNL1       -0.0078
      4 C          62.6715   86.1776   11.8985 C.ar    1  UNL1       -0.0006
      5 C          61.8700   85.9316   10.6546 C.ar    1  UNL1       -0.0000
      6 C          61.4441   87.0857    9.7963 C.ar    1  UNL1       -0.0003
      7 C          61.8197   88.4858   10.1818 C.ar    1  UNL1       -0.0040
      8 C          62.6212   88.7318   11.4256 C.ar    1  UNL1       -0.0184
      9 C          63.1359   89.9923   12.0551 C.3     1  UNL1        0.0480
     10 C          64.5594   90.5677   14.2431 C.3     1  UNL1        0.0394
     11 C          65.4056   91.6818   13.7022 C.3     1  UNL1        0.0768
     12 F          68.6073   94.3991   16.0283 F       1  UNL1       -0.2013
     13 C          68.1212   93.0214   15.6882 C.3     1  UNL1        0.2928
     14 F          69.2260   92.4284   16.5116 F       1  UNL1       -0.2013
     15 C          67.6352   91.6437   15.3482 C.3     1  UNL1        0.1410
     16 N          66.5304   92.2367   14.5248 N.3     1  UNL1       -0.2632
     17 C          67.0165   93.6144   14.8649 C.3     1  UNL1        0.1410
     18 C          64.4400   87.3210   14.5508 C.3     1  UNL1        0.0730
     19 C          64.0643   85.8797   14.7291 C.ar    1  UNL1        0.0825
     20 C          64.9381   84.8011   14.1609 C.ar    1  UNL1        0.1139
     21 N          64.5625   83.3599   14.3391 N.ar    1  UNL1       -0.2394
     22 C          63.3131   82.9973   15.0857 C.ar    1  UNL1        0.1195
     23 C          62.4392   84.0760   15.6540 C.ar    1  UNL1        0.1191
     24 N          62.8148   85.5172   15.4757 N.ar    1  UNL1       -0.2446
@<TRIPOS>BOND
     1    12    13    1
     2    13    14    1
     3    13    15    1
     4    15    16    1
     5    16    11    1
     6    11    10    1
     7    10     1    1
     8     1     2    2
     9     2    18    1
    10    18    19    1
    11    19    20   ar
    12    20    21   ar
    13    21    22   ar
    14    22    23   ar
    15    23    24   ar
    16     2     3    1
    17     3     4   ar
    18     4     5   ar
    19     5     6   ar
    20     6     7   ar
    21     7     8   ar
    22     8     9    1
    23    16    17    1
    24    17    13    1
    25     9     1    1
    26    24    19   ar
    27     8     3   ar
@<TRIPOS>MOLECULE
*****
 24 27 0 0 0
SMALL
GASTEIGER

@<TRIPOS>ATOM
      1 C          60.4286   87.5360   10.4405 C.2     1  UNL1       -0.0420
      2 C          61.7752   86.8752   10.4442 C.2     1  UNL1       -0.0240
      3 C          61.9177   86.1061    9.1643 C.ar    1  UNL1       -0.0078
      4 C          63.0308   85.2609    8.6198 C.ar    1  UNL1       -0.0006
      5 C          62.8854   84.6011    7.2806 C.ar    1  UNL1       -0.0000
      6 C          61.6269   84.7867    6.4858 C.ar    1  UNL1       -0.0003
      7 C          60.5138   85.6319    7.0302 C.ar    1  UNL1       -0.0040
      8 C          60.6592   86.2916    8.3695 C.ar    1  UNL1       -0.0184
      9 C          59.7389   87.1754    9.1582 C.3     1  UNL1        0.0480
     10 C          59.8699   88.4049   11.5280 C.3     1  UNL1        0.0394
     11 C          60.1790   89.8726   11.5487 C.3     1  UNL1        0.0768
     12 F          64.7030   91.0536   12.6371 F       1  UNL1       -0.2013
     13 C          63.6208   90.9974   11.6000 C.3     1  UNL1        0.2928
     14 F          64.5548   91.6003   10.5928 F       1  UNL1       -0.2013
     15 C          62.5386   90.9414   10.5628 C.3     1  UNL1        0.1410
     16 N          61.6046   90.3385   11.5699 N.3     1  UNL1       -0.2632
     17 C          62.6869   90.3946   12.6070 C.3     1  UNL1        0.1410
     18 C          62.7995   86.9672   11.5362 C.3     1  UNL1        0.0730
     19 C          62.9831   85.8245   12.4905 C.ar    1  UNL1        0.0825
     20 C          62.5281   84.4474   12.1080 C.ar    1  UNL1        0.1139
     21 N          62.7117   83.3047   13.0622 N.ar    1  UNL1       -0.2394
     22 C          63.3505   83.5393   14.3990 C.ar    1  UNL1        0.1195
     23 C          63.8055   84.9164   14.7815 C.ar    1  UNL1        0.1191
     24 N          63.6219   86.0591   13.8273 N.ar    1  UNL1       -0.2446
@<TRIPOS>BOND
     1    12    13    1
     2    13    14    1
     3    13    15    1
     4    15    16    1
     5    16    11    1
     6    11    10    1
     7    10     1    1
     8     1     2    2
     9     2    18    1
    10    18    19    1
    11    19    20   ar
    12    20    21   ar
    13    21    22   ar
    14    22    23   ar
    15    23    24   ar
    16     2     3    1
    17     3     4   ar
    18     4     5   ar
    19     5     6   ar
    20     6     7   ar
    21     7     8   ar
    22     8     9    1
    23    16    17    1
    24    17    13    1
    25     9     1    1
    26    24    19   ar
    27     8     3   ar
@<TRIPOS>MOLECULE
*****
 24 27 0 0 0
SMALL
GASTEIGER

@<TRIPOS>ATOM
      1 C          62.3928   83.7827   14.4102 C.2     1  UNL1       -0.0420
      2 C          62.8275   84.0508   12.9998 C.2     1  UNL1       -0.0240
      3 C          62.9002   82.7371   12.2795 C.ar    1  UNL1       -0.0078
      4 C          63.2710   82.3848   10.8694 C.ar    1  UNL1       -0.0006
      5 C          63.2518   80.9524   10.4245 C.ar    1  UNL1       -0.0000
      6 C          62.8619   79.8724   11.3897 C.ar    1  UNL1       -0.0003
      7 C          62.4911   80.2247   12.7997 C.ar    1  UNL1       -0.0040
      8 C          62.5103   81.6571   13.2447 C.ar    1  UNL1       -0.0184
      9 C          62.1967   82.3033   14.5615 C.3     1  UNL1        0.0480
     10 C          62.1897   84.8131   15.4812 C.3     1  UNL1        0.0394
     11 C          63.3732   85.5033   16.0919 C.3     1  UNL1        0.0768
     12 F          63.2363   90.2450   16.8296 F       1  UNL1       -0.2013
     13 C          63.6443   89.1111   15.9364 C.3     1  UNL1        0.2928
     14 F          64.2113   90.0907   14.9520 F       1  UNL1       -0.2013
     15 C          64.0525   87.9773   15.0431 C.3     1  UNL1        0.1410
     16 N          63.4855   86.9977   16.0275 N.3     1  UNL1       -0.2632
     17 C          63.0774   88.1316   16.9207 C.3     1  UNL1        0.1410
     18 C          63.1356   85.3964   12.4129 C.3     1  UNL1        0.0730
     19 C          62.2686   85.9560   11.3241 C.ar    1  UNL1        0.0825
     20 C          62.4957   85.5461    9.8992 C.ar    1  UNL1        0.1139
     21 N          61.6288   86.1056    8.8105 N.ar    1  UNL1       -0.2394
     22 C          60.5348   87.0753    9.1468 C.ar    1  UNL1        0.1195
     23 C          60.3078   87.4853   10.5717 C.ar    1  UNL1        0.1191
     24 N          61.1747   86.9257   11.6604 N.ar    1  UNL1       -0.2446
@<TRIPOS>BOND
     1    12    13    1
     2    13    14    1
     3    13    15    1
     4    15    16    1
     5    16    11    1
     6    11    10    1
     7    10     1    1
     8     1     2    2
     9     2    18    1
    10    18    19    1
    11    19    20   ar
    12    20    21   ar
    13    21    22   ar
    14    22    23   ar
    15    23    24   ar
    16     2     3    1
    17     3     4   ar
    18     4     5   ar
    19     5     6   ar
    20     6     7   ar
    21     7     8   ar
    22     8     9    1
    23    16    17    1
    24    17    13    1
    25     9     1    1
    26    24    19   ar
    27     8     3   ar
@<TRIPOS>MOLECULE
*****
 24 27 0 0 0
SMALL
GASTEIGER

@<TRIPOS>ATOM
      1 C          62.2029   88.6835   11.1463 C.2     1  UNL1       -0.0420
      2 C          61.4954   87.3882   10.8783 C.2     1  UNL1       -0.0240
      3 C          60.6434   87.5694    9.6571 C.ar    1  UNL1       -0.0078
      4 C          59.7263   86.6347    8.9255 C.ar    1  UNL1       -0.0006
      5 C          58.9900   87.1074    7.7071 C.ar    1  UNL1       -0.0000
      6 C          59.1708   88.5146    7.2204 C.ar    1  UNL1       -0.0003
      7 C          60.0880   89.4492    7.9520 C.ar    1  UNL1       -0.0040
      8 C          60.8242   88.9766    9.1703 C.ar    1  UNL1       -0.0184
      9 C          61.7880   89.6651   10.0907 C.3     1  UNL1        0.0480
     10 C          63.1575   88.9502   12.2721 C.3     1  UNL1        0.0394
     11 C          63.1475   90.2807   12.9646 C.3     1  UNL1        0.0768
     12 F          67.2686   91.6768   14.9927 F       1  UNL1       -0.2013
     13 C          66.2702   91.8643   13.8892 C.3     1  UNL1        0.2928
     14 F          67.1010   92.9797   13.3271 F       1  UNL1       -0.2013
     15 C          65.2718   92.0520   12.7855 C.3     1  UNL1        0.1410
     16 N          64.4409   90.9367   13.3476 N.3     1  UNL1       -0.2632
     17 C          65.4394   90.7491   14.4511 C.3     1  UNL1        0.1410
     18 C          61.6184   86.1322   11.6891 C.3     1  UNL1        0.0730
     19 C          62.5757   85.0574   11.2665 C.ar    1  UNL1        0.0825
     20 C          62.8969   84.8680    9.8136 C.ar    1  UNL1        0.1139
     21 N          63.8540   83.7932    9.3910 N.ar    1  UNL1       -0.2394
     22 C          64.4901   82.9079   10.4213 C.ar    1  UNL1        0.1195
     23 C          64.1689   83.0973   11.8742 C.ar    1  UNL1        0.1191
     24 N          63.2117   84.1720   12.2969 N.ar    1  UNL1       -0.2446
@<TRIPOS>BOND
     1    12    13    1
     2    13    14    1
     3    13    15    1
     4    15    16    1
     5    16    11    1
     6    11    10    1
     7    10     1    1
     8     1     2    2
     9     2    18    1
    10    18    19    1
    11    19    20   ar
    12    20    21   ar
    13    21    22   ar
    14    22    23   ar
    15    23    24   ar
    16     2     3    1
    17     3     4   ar
    18     4     5   ar
    19     5     6   ar
    20     6     7   ar
    21     7     8   ar
    22     8     9    1
    23    16    17    1
    24    17    13    1
    25     9     1    1
    26    24    19   ar
    27     8     3   ar
@<TRIPOS>MOLECULE
*****
 24 27 0 0 0
SMALL
GASTEIGER

@<TRIPOS>ATOM
      1 C          63.8016   88.5138   13.4617 C.2     1  UNL1       -0.0420
      2 C          63.5830   87.0418   13.2735 C.2     1  UNL1       -0.0240
      3 C          62.8334   86.8449   11.9893 C.ar    1  UNL1       -0.0078
      4 C          62.3420   85.6105   11.2931 C.ar    1  UNL1       -0.0006
      5 C          61.6058   85.7265    9.9913 C.ar    1  UNL1       -0.0000
      6 C          61.3611   87.0768    9.3858 C.ar    1  UNL1       -0.0003
      7 C          61.8526   88.3112   10.0820 C.ar    1  UNL1       -0.0040
      8 C          62.5887   88.1952   11.3838 C.ar    1  UNL1       -0.0184
      9 C          63.1871   89.2266   12.2938 C.3     1  UNL1        0.0480
     10 C          64.5104   89.1595   14.6153 C.3     1  UNL1        0.0394
     11 C          64.1754   90.5679   15.0080 C.3     1  UNL1        0.0768
     12 F          67.4094   94.1157   15.0137 F       1  UNL1       -0.2013
     13 C          66.4656   93.2604   14.2214 C.3     1  UNL1        0.2928
     14 F          66.8636   93.9824   12.9682 F       1  UNL1       -0.2013
     15 C          65.5220   92.4052   13.4289 C.3     1  UNL1        0.1410
     16 N          65.1240   91.6832   14.6822 N.3     1  UNL1       -0.2632
     17 C          66.0678   92.5385   15.4745 C.3     1  UNL1        0.1410
     18 C          64.0347   85.9570   14.2059 C.3     1  UNL1        0.0730
     19 C          63.6793   84.5276   13.9218 C.ar    1  UNL1        0.0825
     20 C          62.4953   83.9009   14.5966 C.ar    1  UNL1        0.1139
     21 N          62.1398   82.4716   14.3126 N.ar    1  UNL1       -0.2394
     22 C          62.9683   81.6691   13.3537 C.ar    1  UNL1        0.1195
     23 C          64.1522   82.2958   12.6788 C.ar    1  UNL1        0.1191
     24 N          64.5078   83.7251   12.9628 N.ar    1  UNL1       -0.2446
@<TRIPOS>BOND
     1    12    13    1
     2    13    14    1
     3    13    15    1
     4    15    16    1
     5    16    11    1
     6    11    10    1
     7    10     1    1
     8     1     2    2
     9     2    18    1
    10    18    19    1
    11    19    20   ar
    12    20    21   ar
    13    21    22   ar
    14    22    23   ar
    15    23    24   ar
    16     2     3    1
    17     3     4   ar
    18     4     5   ar
    19     5     6   ar
    20     6     7   ar
    21     7     8   ar
    22     8     9    1
    23    16    17    1
    24    17    13    1
    25     9     1    1
    26    24    19   ar
    27     8     3   ar
@<TRIPOS>MOLECULE
*****
 24 27 0 0 0
SMALL
GASTEIGER

@<TRIPOS>ATOM
      1 C          63.8109   90.7732   13.1465 C.2     1  UNL1       -0.0420
      2 C          64.0824   90.7787   14.6217 C.2     1  UNL1       -0.0240
      3 C          65.2628   91.6696   14.8725 C.ar    1  UNL1       -0.0078
      4 C          65.9798   92.0548   16.1325 C.ar    1  UNL1       -0.0006
      5 C          67.1548   92.9852   16.0722 C.ar    1  UNL1       -0.0000
      6 C          67.6129   93.5303   14.7520 C.ar    1  UNL1       -0.0003
      7 C          66.8959   93.1451   13.4920 C.ar    1  UNL1       -0.0040
      8 C          65.7209   92.2147   13.5523 C.ar    1  UNL1       -0.0184
      9 C          64.8235   91.6607   12.4856 C.3     1  UNL1        0.0480
     10 C          62.7185   90.0136   12.4538 C.3     1  UNL1        0.0394
     11 C          62.6774   89.9580   10.9555 C.3     1  UNL1        0.0768
     12 F          59.2727   87.7267    8.4109 F       1  UNL1       -0.2013
     13 C          60.4821   87.6082    9.2903 C.3     1  UNL1        0.2928
     14 F          60.4055   86.1132    9.1942 F       1  UNL1       -0.2013
     15 C          61.6915   87.4897   10.1696 C.3     1  UNL1        0.1410
     16 N          61.7681   88.9847   10.2657 N.3     1  UNL1       -0.2632
     17 C          60.5587   89.1031    9.3863 C.3     1  UNL1        0.1410
     18 C          63.3092   90.0255   15.6633 C.3     1  UNL1        0.0730
     19 C          63.4961   88.5445   15.8112 C.ar    1  UNL1        0.0825
     20 C          62.9632   87.8385   17.0227 C.ar    1  UNL1        0.1139
     21 N          63.1501   86.3576   17.1706 N.ar    1  UNL1       -0.2394
     22 C          63.8699   85.5826   16.1071 C.ar    1  UNL1        0.1195
     23 C          64.4028   86.2885   14.8956 C.ar    1  UNL1        0.1191
     24 N          64.2160   87.7694   14.7476 N.ar    1  UNL1       -0.2446
@<TRIPOS>BOND
     1    12    13    1
     2    13    14    1
     3    13    15    1
     4    15    16    1
     5    16    11    1
     6    11    10    1
     7    10     1    1
     8     1     2    2
     9     2    18    1
    10    18    19    1
    11    19    20   ar
    12    20    21   ar
    13    21    22   ar
    14    22    23   ar
    15    23    24   ar
    16     2     3    1
    17     3     4   ar
    18     4     5   ar
    19     5     6   ar
    20     6     7   ar
    21     7     8   ar
    22     8     9    1
    23    16    17    1
    24    17    13    1
    25     9     1    1
    26    24    19   ar
    27     8     3   ar
@<TRIPOS>MOLECULE
*****
 24 27 0 0 0
SMALL
GASTEIGER

@<TRIPOS>ATOM
      1 C          62.7523   90.3782   12.6278 C.2     1  UNL1       -0.0420
      2 C          63.6622   90.5618   13.8061 C.2     1  UNL1       -0.0240
      3 C          64.8708   91.3210   13.3447 C.ar    1  UNL1       -0.0078
      4 C          66.0986   91.7891   14.0680 C.ar    1  UNL1       -0.0006
      5 C          67.1634   92.5429   13.3279 C.ar    1  UNL1       -0.0000
      6 C          67.0005   92.8286   11.8644 C.ar    1  UNL1       -0.0003
      7 C          65.7727   92.3605   11.1410 C.ar    1  UNL1       -0.0040
      8 C          64.7078   91.6067   11.8812 C.ar    1  UNL1       -0.0184
      9 C          63.3985   91.0240   11.4381 C.3     1  UNL1        0.0480
     10 C          61.4285   89.6728   12.6375 C.3     1  UNL1        0.0394
     11 C          60.6171   89.5834   11.3791 C.3     1  UNL1        0.0768
     12 F          60.2807   85.8777    8.3460 F       1  UNL1       -0.2013
     13 C          61.1649   86.8557    9.0611 C.3     1  UNL1        0.2928
     14 F          62.3703   86.2358    8.4184 F       1  UNL1       -0.2013
     15 C          62.0493   87.8336    9.7763 C.3     1  UNL1        0.1410
     16 N          60.8440   88.4535   10.4190 N.3     1  UNL1       -0.2632
     17 C          59.9597   87.4755    9.7038 C.3     1  UNL1        0.1410
     18 C          63.4081   90.0721   15.2010 C.3     1  UNL1        0.0730
     19 C          63.5680   88.6163   15.5255 C.ar    1  UNL1        0.0825
     20 C          64.4118   87.7404   14.6475 C.ar    1  UNL1        0.1139
     21 N          64.5717   86.2847   14.9720 N.ar    1  UNL1       -0.2394
     22 C          63.8879   85.7049   16.1746 C.ar    1  UNL1        0.1195
     23 C          63.0441   86.5808   17.0526 C.ar    1  UNL1        0.1191
     24 N          62.8842   88.0365   16.7281 N.ar    1  UNL1       -0.2446
@<TRIPOS>BOND
     1    12    13    1
     2    13    14    1
     3    13    15    1
     4    15    16    1
     5    16    11    1
     6    11    10    1
     7    10     1    1
     8     1     2    2
     9     2    18    1
    10    18    19    1
    11    19    20   ar
    12    20    21   ar
    13    21    22   ar
    14    22    23   ar
    15    23    24   ar
    16     2     3    1
    17     3     4   ar
    18     4     5   ar
    19     5     6   ar
    20     6     7   ar
    21     7     8   ar
    22     8     9    1
    23    16    17    1
    24    17    13    1
    25     9     1    1
    26    24    19   ar
    27     8     3   ar
