@<TRIPOS>MOLECULE
*****
 23 25 0 0 0
SMALL
GASTEIGER

@<TRIPOS>ATOM
      1 C          63.8044   86.5561   13.8422 C.ar    1  UNL1        0.1287
      2 N          63.9983   88.0404   13.7468 N.ar    1  UNL1       -0.2203
      3 C          63.4429   88.7956   12.5757 C.ar    1  UNL1        0.1494
      4 C          63.6369   90.2799   12.4802 C.ar    1  UNL1        0.0375
      5 C          63.0815   91.0351   11.3092 C.ar    1  UNL1        0.0046
      6 C          62.3322   90.3059   10.2337 C.ar    1  UNL1        0.0192
      7 C          62.1382   88.8216   10.3292 C.ar    1  UNL1        0.0828
      8 N          62.6936   88.0665   11.5002 N.ar    1  UNL1       -0.2746
      9 C          62.4996   86.5821   11.5957 C.ar    1  UNL1        0.1605
     10 N          61.7503   85.8529   10.5202 N.2     1  UNL1       -0.2814
     11 C          63.0550   85.8269   12.7667 C.ar    1  UNL1        0.1673
     12 H          61.3857   86.3485    9.7516 H       1  UNL1        0.1884
     13 S          62.8610   84.3426   12.8622 S.O2    1  UNL1        0.0322
     14 O          61.8013   84.5481   13.9036 O.2     1  UNL1       -0.1641
     15 O          63.9208   84.1370   11.8208 O.2     1  UNL1       -0.1641
     16 C          62.6671   82.8583   12.9578 C.ar    1  UNL1        0.1105
     17 C          63.0773   81.9733   11.8182 C.ar    1  UNL1        0.0187
     18 C          62.8833   80.4891   11.9138 C.ar    1  UNL1        0.0013
     19 C          62.2791   79.8896   13.1489 C.ar    1  UNL1        0.0001
     20 C          61.8688   80.7745   14.2885 C.ar    1  UNL1        0.0013
     21 C          62.0628   82.2589   14.1929 C.ar    1  UNL1        0.0187
     22 C          63.6762   85.8757   16.3464 C.3     1  UNL1        0.0757
     23 S          64.3597   85.8009   15.0133 S.3     1  UNL1       -0.0926
@<TRIPOS>BOND
     1    22    23    1
     2    23     1    1
     3     1     2   ar
     4     2     3   ar
     5     3     4   ar
     6     4     5   ar
     7     5     6   ar
     8     6     7   ar
     9     7     8   ar
    10     8     9   ar
    11     9    10    2
    12     9    11   ar
    13    11    13    1
    14    13    14    2
    15    13    15    2
    16    13    16    1
    17    16    17   ar
    18    17    18   ar
    19    18    19   ar
    20    19    20   ar
    21    20    21   ar
    22    11     1   ar
    23    21    16   ar
    24     8     3   ar
    25    10    12    1
@<TRIPOS>MOLECULE
*****
 23 25 0 0 0
SMALL
GASTEIGER

@<TRIPOS>ATOM
      1 C          62.3090   86.7650   11.3881 C.ar    1  UNL1        0.1287
      2 N          62.4462   88.2517   11.2441 N.ar    1  UNL1       -0.2203
      3 C          63.2253   89.0348   12.2590 C.ar    1  UNL1        0.1494
      4 C          63.3625   90.5215   12.1150 C.ar    1  UNL1        0.0375
      5 C          64.1416   91.3046   13.1297 C.ar    1  UNL1        0.0046
      6 C          64.7835   90.6009   14.2885 C.ar    1  UNL1        0.0192
      7 C          64.6463   89.1141   14.4325 C.ar    1  UNL1        0.0828
      8 N          63.8672   88.3311   13.4177 N.ar    1  UNL1       -0.2746
      9 C          63.7300   86.8443   13.5617 C.ar    1  UNL1        0.1605
     10 N          64.3719   86.1406   14.7205 N.2     1  UNL1       -0.2814
     11 C          62.9509   86.0613   12.5469 C.ar    1  UNL1        0.1673
     12 H          64.8833   86.6546   15.3865 H       1  UNL1        0.1884
     13 S          62.8137   84.5745   12.6909 S.O2    1  UNL1        0.0322
     14 O          63.7218   84.3767   11.5136 O.2     1  UNL1       -0.1641
     15 O          61.9055   84.7722   13.8682 O.2     1  UNL1       -0.1641
     16 C          62.6765   83.0877   12.8348 C.ar    1  UNL1        0.1105
     17 C          62.1454   82.5035   14.1102 C.ar    1  UNL1        0.0187
     18 C          62.0083   81.0168   14.2541 C.ar    1  UNL1        0.0013
     19 C          62.4022   80.1142   13.1226 C.ar    1  UNL1        0.0001
     20 C          62.9332   80.6984   11.8472 C.ar    1  UNL1        0.0013
     21 C          63.0704   82.1852   11.7033 C.ar    1  UNL1        0.0187
     22 C          61.8891   86.0715    8.9198 C.3     1  UNL1        0.0757
     23 S          61.5298   85.9818   10.3733 S.3     1  UNL1       -0.0926
@<TRIPOS>BOND
     1    22    23    1
     2    23     1    1
     3     1     2   ar
     4     2     3   ar
     5     3     4   ar
     6     4     5   ar
     7     5     6   ar
     8     6     7   ar
     9     7     8   ar
    10     8     9   ar
    11     9    10    2
    12     9    11   ar
    13    11    13    1
    14    13    14    2
    15    13    15    2
    16    13    16    1
    17    16    17   ar
    18    17    18   ar
    19    18    19   ar
    20    19    20   ar
    21    20    21   ar
    22    11     1   ar
    23    21    16   ar
    24     8     3   ar
    25    10    12    1
@<TRIPOS>MOLECULE
*****
 23 25 0 0 0
SMALL
GASTEIGER

@<TRIPOS>ATOM
      1 C          63.4713   90.1974   12.1414 C.ar    1  UNL1        0.1287
      2 N          63.7519   91.2311   11.0913 N.ar    1  UNL1       -0.2203
      3 C          64.6996   92.3571   11.3816 C.ar    1  UNL1        0.1494
      4 C          64.9802   93.3908   10.3315 C.ar    1  UNL1        0.0375
      5 C          65.9279   94.5166   10.6218 C.ar    1  UNL1        0.0046
      6 C          66.5950   94.6087   11.9621 C.ar    1  UNL1        0.0192
      7 C          66.3144   93.5750   13.0122 C.ar    1  UNL1        0.0828
      8 N          65.3667   92.4492   12.7219 N.ar    1  UNL1       -0.2746
      9 C          65.0861   91.4154   13.7720 C.ar    1  UNL1        0.1605
     10 N          65.7532   91.5075   15.1123 N.2     1  UNL1       -0.2814
     11 C          64.1384   90.2895   13.4817 C.ar    1  UNL1        0.1673
     12 H          66.3753   92.2464   15.3028 H       1  UNL1        0.1884
     13 S          63.8578   89.2557   14.5318 S.O2    1  UNL1        0.0322
     14 O          63.0799   90.2675   15.3199 O.2     1  UNL1       -0.1641
     15 O          64.6357   88.2440   13.7437 O.2     1  UNL1       -0.1641
     16 C          63.5772   88.2220   15.5818 C.ar    1  UNL1        0.1105
     17 C          62.9885   88.6318   16.8993 C.ar    1  UNL1        0.0187
     18 C          62.7079   87.5981   17.9493 C.ar    1  UNL1        0.0013
     19 C          63.0159   86.1545   17.6820 C.ar    1  UNL1        0.0001
     20 C          63.6045   85.7448   16.3645 C.ar    1  UNL1        0.0013
     21 C          63.8852   86.7786   15.3145 C.ar    1  UNL1        0.0187
     22 C          61.1185   89.3670   11.4168 C.3     1  UNL1        0.0757
     23 S          62.5235   89.0715   11.8512 S.3     1  UNL1       -0.0926
@<TRIPOS>BOND
     1    22    23    1
     2    23     1    1
     3     1     2   ar
     4     2     3   ar
     5     3     4   ar
     6     4     5   ar
     7     5     6   ar
     8     6     7   ar
     9     7     8   ar
    10     8     9   ar
    11     9    10    2
    12     9    11   ar
    13    11    13    1
    14    13    14    2
    15    13    15    2
    16    13    16    1
    17    16    17   ar
    18    17    18   ar
    19    18    19   ar
    20    19    20   ar
    21    20    21   ar
    22    11     1   ar
    23    21    16   ar
    24     8     3   ar
    25    10    12    1
@<TRIPOS>MOLECULE
*****
 23 25 0 0 0
SMALL
GASTEIGER

@<TRIPOS>ATOM
      1 C          63.3146   87.4905   12.8860 C.ar    1  UNL1        0.1287
      2 N          62.6230   86.5362   11.9582 N.ar    1  UNL1       -0.2203
      3 C          61.7609   87.0610   10.8484 C.ar    1  UNL1        0.1494
      4 C          61.0693   86.1067    9.9207 C.ar    1  UNL1        0.0375
      5 C          60.2073   86.6315    8.8109 C.ar    1  UNL1        0.0046
      6 C          60.0370   88.1107    8.6290 C.ar    1  UNL1        0.0192
      7 C          60.7286   89.0650    9.5568 C.ar    1  UNL1        0.0828
      8 N          61.5906   88.5402   10.6665 N.ar    1  UNL1       -0.2746
      9 C          62.2823   89.4945   11.5944 C.ar    1  UNL1        0.1605
     10 N          62.1120   90.9737   11.4124 N.2     1  UNL1       -0.2814
     11 C          63.1443   88.9697   12.7041 C.ar    1  UNL1        0.1673
     12 H          61.5463   91.3181   10.6841 H       1  UNL1        0.1884
     13 S          63.8360   89.9240   13.6319 S.O2    1  UNL1        0.0322
     14 O          62.9691   89.4536   14.7620 O.2     1  UNL1       -0.1641
     15 O          64.7030   90.3944   12.5019 O.2     1  UNL1       -0.1641
     16 C          64.5277   90.8783   14.5598 C.ar    1  UNL1        0.1105
     17 C          65.7817   91.5747   14.1212 C.ar    1  UNL1        0.0187
     18 C          66.4734   92.5290   15.0490 C.ar    1  UNL1        0.0013
     19 C          65.9110   92.7869   16.4155 C.ar    1  UNL1        0.0001
     20 C          64.6569   92.0905   16.8541 C.ar    1  UNL1        0.0013
     21 C          63.9652   91.1362   15.9262 C.ar    1  UNL1        0.0187
     22 C          64.0951   85.5206   14.3895 C.3     1  UNL1        0.0757
     23 S          64.1766   86.9657   13.9958 S.3     1  UNL1       -0.0926
@<TRIPOS>BOND
     1    22    23    1
     2    23     1    1
     3     1     2   ar
     4     2     3   ar
     5     3     4   ar
     6     4     5   ar
     7     5     6   ar
     8     6     7   ar
     9     7     8   ar
    10     8     9   ar
    11     9    10    2
    12     9    11   ar
    13    11    13    1
    14    13    14    2
    15    13    15    2
    16    13    16    1
    17    16    17   ar
    18    17    18   ar
    19    18    19   ar
    20    19    20   ar
    21    20    21   ar
    22    11     1   ar
    23    21    16   ar
    24     8     3   ar
    25    10    12    1
@<TRIPOS>MOLECULE
*****
 23 25 0 0 0
SMALL
GASTEIGER

@<TRIPOS>ATOM
      1 C          63.3029   84.6471   15.0927 C.ar    1  UNL1        0.1287
      2 N          63.1035   83.1697   15.2580 N.ar    1  UNL1       -0.2203
      3 C          62.9786   82.2898   14.0496 C.ar    1  UNL1        0.1494
      4 C          62.7792   80.8124   14.2149 C.ar    1  UNL1        0.0375
      5 C          62.6543   79.9326   13.0065 C.ar    1  UNL1        0.0046
      6 C          62.7288   80.5303   11.6327 C.ar    1  UNL1        0.0192
      7 C          62.9283   82.0077   11.4674 C.ar    1  UNL1        0.0828
      8 N          63.0531   82.8875   12.6758 N.ar    1  UNL1       -0.2746
      9 C          63.2526   84.3650   12.5105 C.ar    1  UNL1        0.1605
     10 N          63.3271   84.9626   11.1367 N.2     1  UNL1       -0.2814
     11 C          63.3775   85.2448   13.7189 C.ar    1  UNL1        0.1673
     12 H          63.2451   84.3852   10.3435 H       1  UNL1        0.1884
     13 S          63.5769   86.7223   13.5536 S.O2    1  UNL1        0.0322
     14 O          64.7679   86.6633   14.4635 O.2     1  UNL1       -0.1641
     15 O          62.3859   86.7813   12.6437 O.2     1  UNL1       -0.1641
     16 C          63.7763   88.1997   13.3883 C.ar    1  UNL1        0.1105
     17 C          63.2074   88.9042   12.1924 C.ar    1  UNL1        0.0187
     18 C          63.4069   90.3816   12.0272 C.ar    1  UNL1        0.0013
     19 C          64.1753   91.1547   13.0578 C.ar    1  UNL1        0.0001
     20 C          64.7442   90.4502   14.2536 C.ar    1  UNL1        0.0013
     21 C          64.5447   88.9727   14.4188 C.ar    1  UNL1        0.0187
     22 C          62.2097   85.8765   17.1035 C.3     1  UNL1        0.0757
     23 S          63.4279   85.5270   16.3011 S.3     1  UNL1       -0.0926
@<TRIPOS>BOND
     1    22    23    1
     2    23     1    1
     3     1     2   ar
     4     2     3   ar
     5     3     4   ar
     6     4     5   ar
     7     5     6   ar
     8     6     7   ar
     9     7     8   ar
    10     8     9   ar
    11     9    10    2
    12     9    11   ar
    13    11    13    1
    14    13    14    2
    15    13    15    2
    16    13    16    1
    17    16    17   ar
    18    17    18   ar
    19    18    19   ar
    20    19    20   ar
    21    20    21   ar
    22    11     1   ar
    23    21    16   ar
    24     8     3   ar
    25    10    12    1
@<TRIPOS>MOLECULE
*****
 23 25 0 0 0
SMALL
GASTEIGER

@<TRIPOS>ATOM
      1 C          63.2366   88.6841   12.5241 C.ar    1  UNL1        0.1287
      2 N          64.1937   89.2765   13.5155 N.ar    1  UNL1       -0.2203
      3 C          64.7754   90.6381   13.2752 C.ar    1  UNL1        0.1494
      4 C          65.7325   91.2304   14.2667 C.ar    1  UNL1        0.0375
      5 C          66.3142   92.5919   14.0263 C.ar    1  UNL1        0.0046
      6 C          65.9388   93.3611   12.7945 C.ar    1  UNL1        0.0192
      7 C          64.9817   92.7688   11.8030 C.ar    1  UNL1        0.0828
      8 N          64.4000   91.4072   12.0434 N.ar    1  UNL1       -0.2746
      9 C          63.4429   90.8148   11.0518 C.ar    1  UNL1        0.1605
     10 N          63.0676   91.5840    9.8200 N.2     1  UNL1       -0.2814
     11 C          62.8612   89.4533   11.2922 C.ar    1  UNL1        0.1673
     12 H          63.4494   92.4776    9.6622 H       1  UNL1        0.1884
     13 S          61.9041   88.8609   10.3007 S.O2    1  UNL1        0.0322
     14 O          60.7678   89.5743   10.9714 O.2     1  UNL1       -0.1641
     15 O          63.0404   88.1475    9.6300 O.2     1  UNL1       -0.1641
     16 C          60.9470   88.2685    9.3092 C.ar    1  UNL1        0.1105
     17 C          60.8379   86.7790    9.1698 C.ar    1  UNL1        0.0187
     18 C          59.8808   86.1866    8.1783 C.ar    1  UNL1        0.0013
     19 C          59.0327   87.0838    7.3263 C.ar    1  UNL1        0.0001
     20 C          59.1418   88.5733    7.4657 C.ar    1  UNL1        0.0013
     21 C          60.0990   89.1656    8.4572 C.ar    1  UNL1        0.0187
     22 C          63.5469   86.1866   13.1693 C.3     1  UNL1        0.0757
     23 S          62.6548   87.3225   12.7644 S.3     1  UNL1       -0.0926
@<TRIPOS>BOND
     1    22    23    1
     2    23     1    1
     3     1     2   ar
     4     2     3   ar
     5     3     4   ar
     6     4     5   ar
     7     5     6   ar
     8     6     7   ar
     9     7     8   ar
    10     8     9   ar
    11     9    10    2
    12     9    11   ar
    13    11    13    1
    14    13    14    2
    15    13    15    2
    16    13    16    1
    17    16    17   ar
    18    17    18   ar
    19    18    19   ar
    20    19    20   ar
    21    20    21   ar
    22    11     1   ar
    23    21    16   ar
    24     8     3   ar
    25    10    12    1
@<TRIPOS>MOLECULE
*****
 23 25 0 0 0
SMALL
GASTEIGER

@<TRIPOS>ATOM
      1 C          62.4146   83.9387   14.1031 C.ar    1  UNL1        0.1287
      2 N          62.2521   82.4508   14.2006 N.ar    1  UNL1       -0.2203
      3 C          62.5033   81.5885   12.9991 C.ar    1  UNL1        0.1494
      4 C          62.3408   80.1005   13.0967 C.ar    1  UNL1        0.0375
      5 C          62.5920   79.2383   11.8952 C.ar    1  UNL1        0.0046
      6 C          63.0058   79.8641   10.5963 C.ar    1  UNL1        0.0192
      7 C          63.1683   81.3520   10.4988 C.ar    1  UNL1        0.0828
      8 N          62.9171   82.2142   11.7002 N.ar    1  UNL1       -0.2746
      9 C          63.0796   83.7023   11.6027 C.ar    1  UNL1        0.1605
     10 N          63.4934   84.3280   10.3038 N.2     1  UNL1       -0.2814
     11 C          62.8284   84.5645   12.8041 C.ar    1  UNL1        0.1673
     12 H          63.6583   83.7621    9.5152 H       1  UNL1        0.1884
     13 S          62.9909   86.0525   12.7066 S.O2    1  UNL1        0.0322
     14 O          61.7201   86.1394   11.9146 O.2     1  UNL1       -0.1641
     15 O          64.2617   85.9656   13.4987 O.2     1  UNL1       -0.1641
     16 C          63.1534   87.5404   12.6091 C.ar    1  UNL1        0.1105
     17 C          63.8800   88.2879   13.6878 C.ar    1  UNL1        0.0187
     18 C          64.0425   89.7758   13.5903 C.ar    1  UNL1        0.0013
     19 C          63.4783   90.5164   12.4141 C.ar    1  UNL1        0.0001
     20 C          62.7517   89.7690   11.3355 C.ar    1  UNL1        0.0013
     21 C          62.5893   88.2810   11.4330 C.ar    1  UNL1        0.0187
     22 C          63.2086   84.9204   16.3738 C.3     1  UNL1        0.0757
     23 S          62.1634   84.8010   15.3045 S.3     1  UNL1       -0.0926
@<TRIPOS>BOND
     1    22    23    1
     2    23     1    1
     3     1     2   ar
     4     2     3   ar
     5     3     4   ar
     6     4     5   ar
     7     5     6   ar
     8     6     7   ar
     9     7     8   ar
    10     8     9   ar
    11     9    10    2
    12     9    11   ar
    13    11    13    1
    14    13    14    2
    15    13    15    2
    16    13    16    1
    17    16    17   ar
    18    17    18   ar
    19    18    19   ar
    20    19    20   ar
    21    20    21   ar
    22    11     1   ar
    23    21    16   ar
    24     8     3   ar
    25    10    12    1
@<TRIPOS>MOLECULE
*****
 23 25 0 0 0
SMALL
GASTEIGER

@<TRIPOS>ATOM
      1 C          72.6260   74.3700   15.8478 C.ar    1  UNL1        0.1287
      2 N          73.2023   75.6947   16.2513 N.ar    1  UNL1       -0.2203
      3 C          73.0564   76.8828   15.3472 C.ar    1  UNL1        0.1494
      4 C          73.6327   78.2076   15.7507 C.ar    1  UNL1        0.0375
      5 C          73.4869   79.3955   14.8466 C.ar    1  UNL1        0.0046
      6 C          72.7648   79.2587   13.5390 C.ar    1  UNL1        0.0192
      7 C          72.1885   77.9340   13.1355 C.ar    1  UNL1        0.0828
      8 N          72.3343   76.7460   14.0396 N.ar    1  UNL1       -0.2746
      9 C          71.7580   75.4211   13.6361 C.ar    1  UNL1        0.1605
     10 N          71.0358   75.2843   12.3285 N.2     1  UNL1       -0.2814
     11 C          71.9038   74.2332   14.5402 C.ar    1  UNL1        0.1673
     12 H          70.9401   76.0641   11.7351 H       1  UNL1        0.1884
     13 S          71.3275   72.9083   14.1368 S.O2    1  UNL1        0.0322
     14 O          70.0372   73.2634   14.8142 O.2     1  UNL1       -0.1641
     15 O          72.6178   72.5533   13.4593 O.2     1  UNL1       -0.1641
     16 C          70.7512   71.5836   13.7333 C.ar    1  UNL1        0.1105
     17 C          69.6958   71.5175   12.6695 C.ar    1  UNL1        0.0187
     18 C          69.1195   70.1927   12.2661 C.ar    1  UNL1        0.0013
     19 C          69.5985   68.9339   12.9265 C.ar    1  UNL1        0.0001
     20 C          70.6540   69.0000   13.9903 C.ar    1  UNL1        0.0013
     21 C          71.2303   70.3249   14.3937 C.ar    1  UNL1        0.0187
     22 C          71.8378   73.0031   17.9120 C.3     1  UNL1        0.0757
     23 S          72.7718   73.1819   16.7519 S.3     1  UNL1       -0.0926
@<TRIPOS>BOND
     1    22    23    1
     2    23     1    1
     3     1     2   ar
     4     2     3   ar
     5     3     4   ar
     6     4     5   ar
     7     5     6   ar
     8     6     7   ar
     9     7     8   ar
    10     8     9   ar
    11     9    10    2
    12     9    11   ar
    13    11    13    1
    14    13    14    2
    15    13    15    2
    16    13    16    1
    17    16    17   ar
    18    17    18   ar
    19    18    19   ar
    20    19    20   ar
    21    20    21   ar
    22    11     1   ar
    23    21    16   ar
    24     8     3   ar
    25    10    12    1
@<TRIPOS>MOLECULE
*****
 23 25 0 0 0
SMALL
GASTEIGER

@<TRIPOS>ATOM
      1 C          63.1597   84.1836   10.4475 C.ar    1  UNL1        0.1287
      2 N          63.2180   82.6854   10.4917 N.ar    1  UNL1       -0.2203
      3 C          62.8470   81.9571   11.7495 C.ar    1  UNL1        0.1494
      4 C          62.9053   80.4589   11.7936 C.ar    1  UNL1        0.0375
      5 C          62.5343   79.7307   13.0514 C.ar    1  UNL1        0.0046
      6 C          62.1050   80.5006   14.2650 C.ar    1  UNL1        0.0192
      7 C          62.0467   81.9988   14.2209 C.ar    1  UNL1        0.0828
      8 N          62.4177   82.7270   12.9631 N.ar    1  UNL1       -0.2746
      9 C          62.3594   84.2253   12.9189 C.ar    1  UNL1        0.1605
     10 N          61.9302   84.9953   14.1326 N.2     1  UNL1       -0.2814
     11 C          62.7304   84.9535   11.6612 C.ar    1  UNL1        0.1673
     12 H          61.6867   84.5173   14.9581 H       1  UNL1        0.1884
     13 S          62.6721   86.4518   11.6170 S.O2    1  UNL1        0.0322
     14 O          63.7497   86.5244   12.6579 O.2     1  UNL1       -0.1641
     15 O          61.5946   86.3792   10.5760 O.2     1  UNL1       -0.1641
     16 C          62.6139   87.9500   11.5728 C.ar    1  UNL1        0.1105
     17 C          63.2802   88.7584   12.6464 C.ar    1  UNL1        0.0187
     18 C          63.2219   90.2566   12.6022 C.ar    1  UNL1        0.0013
     19 C          62.4974   90.9464   11.4845 C.ar    1  UNL1        0.0001
     20 C          61.8311   90.1380   10.4110 C.ar    1  UNL1        0.0013
     21 C          61.8894   88.6397   10.4552 C.ar    1  UNL1        0.0187
     22 C          62.6911   84.7547    7.9567 C.3     1  UNL1        0.0757
     23 S          63.5307   84.9119    9.1897 S.3     1  UNL1       -0.0926
@<TRIPOS>BOND
     1    22    23    1
     2    23     1    1
     3     1     2   ar
     4     2     3   ar
     5     3     4   ar
     6     4     5   ar
     7     5     6   ar
     8     6     7   ar
     9     7     8   ar
    10     8     9   ar
    11     9    10    2
    12     9    11   ar
    13    11    13    1
    14    13    14    2
    15    13    15    2
    16    13    16    1
    17    16    17   ar
    18    17    18   ar
    19    18    19   ar
    20    19    20   ar
    21    20    21   ar
    22    11     1   ar
    23    21    16   ar
    24     8     3   ar
    25    10    12    1
