@<TRIPOS>MOLECULE
*****
 22 25 0 0 0
SMALL
GASTEIGER

@<TRIPOS>ATOM
      1 O          60.9789   89.3086   12.2167 O.2     1  UNL1       -0.2742
      2 C          62.3409   89.7174   11.7394 C.2     1  UNL1        0.2352
      3 N          62.7356   89.4863   10.3109 N.am    1  UNL1       -0.3039
      4 H          63.6017   89.7182    9.9042 H       1  UNL1        0.1494
      5 C          63.3082   90.3574   12.6907 C.3     1  UNL1        0.1795
      6 C          63.3372   89.9334   14.1291 C.2     1  UNL1        0.0891
      7 N          64.3046   90.5734   15.0804 N.2     1  UNL1       -0.2469
      8 C          65.2428   91.6374   14.5930 C.ar    1  UNL1        0.0902
      9 C          66.2982   92.4420   15.2922 C.ar    1  UNL1        0.0267
     10 C          66.9213   93.3632   14.2858 C.ar    1  UNL1        0.0371
     11 S          66.2512   93.1280   12.9646 S.2     1  UNL1       -0.0820
     12 C          65.2138   92.0614   13.1544 C.ar    1  UNL1        0.0826
     13 C          64.2465   91.4214   12.2033 C.2     1  UNL1        0.1944
     14 O          64.2174   91.8454   10.7647 O.2     1  UNL1       -0.2899
     15 C          60.6679   88.3312    9.0634 C.3     1  UNL1        0.0875
     16 C          60.8159   86.9871    9.1689 C.3     1  UNL1        0.0919
     17 N          60.8629   86.1660    9.2069 N.3     1  UNL1       -0.2713
     18 C          59.6810   86.7356    8.4799 C.3     1  UNL1        0.0722
     19 C          59.5172   88.2220    8.3632 C.3     1  UNL1        0.0191
     20 C          60.5354   89.1389    8.9736 C.3     1  UNL1        0.0221
     21 C          61.7174   88.5694    9.7006 C.3     1  UNL1        0.0191
     22 C          61.8812   87.0828    9.8172 C.3     1  UNL1        0.0722
@<TRIPOS>BOND
     1     1     2    2
     2     2     3   am
     3    15     3    1
     4    15    16    1
     5    16    17    1
     6    17    18    1
     7    18    19    1
     8    19    20    1
     9    20    21    1
    10    21    22    1
    11     2     5    1
    12     5     6    1
    13     6     7    2
    14     7     8    1
    15     8     9   ar
    16     9    10   ar
    17    10    11   ar
    18    11    12   ar
    19    12    13    1
    20    13    14    2
    21    20    15    1
    22    13     5    1
    23    22    17    1
    24    12     8   ar
    25     3     4    1
@<TRIPOS>MOLECULE
*****
 22 25 0 0 0
SMALL
GASTEIGER

@<TRIPOS>ATOM
      1 O          63.1261   87.2829   12.4932 O.2     1  UNL1       -0.2742
      2 C          63.5634   86.2292   13.4669 C.2     1  UNL1        0.2352
      3 N          64.1522   86.6268   14.7880 N.am    1  UNL1       -0.3039
      4 H          64.4673   86.0130   15.4903 H       1  UNL1        0.1494
      5 C          63.4119   84.7777   13.1198 C.3     1  UNL1        0.1795
      6 C          64.1021   84.2198   11.9106 C.2     1  UNL1        0.0891
      7 N          63.9506   82.7683   11.5635 N.2     1  UNL1       -0.2469
      8 C          63.1088   81.8750   12.4256 C.ar    1  UNL1        0.0902
      9 C          62.7767   80.4150   12.3346 C.ar    1  UNL1        0.0267
     10 C          61.8812   80.0707   13.4877 C.ar    1  UNL1        0.0371
     11 S          61.6598   81.3179   14.2912 S.2     1  UNL1       -0.0820
     12 C          62.4186   82.4330   13.6348 C.ar    1  UNL1        0.0826
     13 C          62.5701   83.8844   13.9819 C.2     1  UNL1        0.1944
     14 O          61.8798   84.4424   15.1911 O.2     1  UNL1       -0.2899
     15 C          64.1946   89.3012   14.8973 C.3     1  UNL1        0.0875
     16 C          63.5112   89.6835   16.0048 C.3     1  UNL1        0.0919
     17 N          63.1062   89.9636   16.6646 N.3     1  UNL1       -0.2713
     18 C          63.7168   90.9976   15.7659 C.3     1  UNL1        0.0722
     19 C          64.4726   90.5748   14.5412 C.3     1  UNL1        0.0191
     20 C          64.6177   89.1178   14.2152 C.3     1  UNL1        0.0221
     21 C          64.0071   88.0837   15.1140 C.3     1  UNL1        0.0191
     22 C          63.2513   88.5066   16.3388 C.3     1  UNL1        0.0722
@<TRIPOS>BOND
     1     1     2    2
     2     2     3   am
     3    15     3    1
     4    15    16    1
     5    16    17    1
     6    17    18    1
     7    18    19    1
     8    19    20    1
     9    20    21    1
    10    21    22    1
    11     2     5    1
    12     5     6    1
    13     6     7    2
    14     7     8    1
    15     8     9   ar
    16     9    10   ar
    17    10    11   ar
    18    11    12   ar
    19    12    13    1
    20    13    14    2
    21    20    15    1
    22    13     5    1
    23    22    17    1
    24    12     8   ar
    25     3     4    1
@<TRIPOS>MOLECULE
*****
 22 25 0 0 0
SMALL
GASTEIGER

@<TRIPOS>ATOM
      1 O          64.6919   89.7953   14.3477 O.2     1  UNL1       -0.2742
      2 C          64.3384   90.5956   13.1294 C.2     1  UNL1        0.2352
      3 N          64.9481   91.9498   12.9186 N.am    1  UNL1       -0.3039
      4 H          64.7803   92.5485   12.1553 H       1  UNL1        0.1494
      5 C          63.3750   90.0418   12.1217 C.3     1  UNL1        0.1795
      6 C          62.7480   90.9497   11.1057 C.2     1  UNL1        0.0891
      7 N          61.7847   90.3959   10.0980 N.2     1  UNL1       -0.2469
      8 C          61.4484   88.9341   10.1065 C.ar    1  UNL1        0.0902
      9 C          60.5411   88.1080    9.2439 C.ar    1  UNL1        0.0267
     10 C          60.6074   86.6894    9.7268 C.ar    1  UNL1        0.0371
     11 S          61.5557   86.6388   10.8879 S.2     1  UNL1       -0.0820
     12 C          62.0755   88.0262   11.1226 C.ar    1  UNL1        0.0826
     13 C          63.0388   88.5800   12.1302 C.2     1  UNL1        0.1944
     14 O          63.6658   87.6721   13.1463 O.2     1  UNL1       -0.2899
     15 C          66.5735   92.4500   14.9859 C.3     1  UNL1        0.0875
     16 C          67.8520   92.3324   14.5484 C.3     1  UNL1        0.0919
     17 N          68.6434   92.2725   14.3296 N.3     1  UNL1       -0.2713
     18 C          68.3703   92.6289   15.7607 C.3     1  UNL1        0.0722
     19 C          66.9564   92.7590   16.2445 C.3     1  UNL1        0.0191
     20 C          65.8157   92.5326   15.2972 C.3     1  UNL1        0.0221
     21 C          66.0888   92.1762   13.8660 C.3     1  UNL1        0.0191
     22 C          67.5028   92.0461   13.3821 C.3     1  UNL1        0.0722
@<TRIPOS>BOND
     1     1     2    2
     2     2     3   am
     3    15     3    1
     4    15    16    1
     5    16    17    1
     6    17    18    1
     7    18    19    1
     8    19    20    1
     9    20    21    1
    10    21    22    1
    11     2     5    1
    12     5     6    1
    13     6     7    2
    14     7     8    1
    15     8     9   ar
    16     9    10   ar
    17    10    11   ar
    18    11    12   ar
    19    12    13    1
    20    13    14    2
    21    20    15    1
    22    13     5    1
    23    22    17    1
    24    12     8   ar
    25     3     4    1
@<TRIPOS>MOLECULE
*****
 22 25 0 0 0
SMALL
GASTEIGER

@<TRIPOS>ATOM
      1 O          61.8468   90.3650    9.5455 O.2     1  UNL1       -0.2742
      2 C          62.5848   89.7985   10.7220 C.2     1  UNL1        0.2352
      3 N          62.3606   88.3733   11.1325 N.am    1  UNL1       -0.3039
      4 H          62.7949   87.9121   11.8862 H       1  UNL1        0.1494
      5 C          63.5470   90.6571   11.4882 C.3     1  UNL1        0.1795
      6 C          64.3458   91.7079   10.7758 C.2     1  UNL1        0.0891
      7 N          65.3080   92.5665   11.5419 N.2     1  UNL1       -0.2469
      8 C          65.4713   92.3743   13.0206 C.ar    1  UNL1        0.0902
      9 C          66.3362   93.0649   14.0330 C.ar    1  UNL1        0.0267
     10 C          66.0718   92.4409   15.3712 C.ar    1  UNL1        0.0371
     11 S          65.0436   91.3646   15.1858 S.2     1  UNL1       -0.0820
     12 C          64.6725   91.3235   13.7330 C.ar    1  UNL1        0.0826
     13 C          63.7103   90.4649   12.9668 C.2     1  UNL1        0.1944
     14 O          62.9114   89.4140   13.6793 O.2     1  UNL1       -0.2899
     15 C          60.5707   87.3059    9.4525 C.3     1  UNL1        0.0875
     16 C          61.2273   86.4433    8.6374 C.3     1  UNL1        0.0919
     17 N          61.5818   85.9099    8.1200 N.3     1  UNL1       -0.2713
     18 C          60.1032   86.1091    7.9659 C.3     1  UNL1        0.0722
     19 C          59.3770   87.0631    8.8673 C.3     1  UNL1        0.0191
     20 C          60.1295   87.8178    9.9229 C.3     1  UNL1        0.0221
     21 C          61.6082   87.6186   10.0770 C.3     1  UNL1        0.0191
     22 C          62.3344   86.6645    9.1755 C.3     1  UNL1        0.0722
@<TRIPOS>BOND
     1     1     2    2
     2     2     3   am
     3    15     3    1
     4    15    16    1
     5    16    17    1
     6    17    18    1
     7    18    19    1
     8    19    20    1
     9    20    21    1
    10    21    22    1
    11     2     5    1
    12     5     6    1
    13     6     7    2
    14     7     8    1
    15     8     9   ar
    16     9    10   ar
    17    10    11   ar
    18    11    12   ar
    19    12    13    1
    20    13    14    2
    21    20    15    1
    22    13     5    1
    23    22    17    1
    24    12     8   ar
    25     3     4    1
@<TRIPOS>MOLECULE
*****
 22 25 0 0 0
SMALL
GASTEIGER

@<TRIPOS>ATOM
      1 O          64.6418   83.9923   13.8362 O.2     1  UNL1       -0.2742
      2 C          63.5982   84.9287   13.3034 C.2     1  UNL1        0.2352
      3 N          62.3975   84.3847   12.5877 N.am    1  UNL1       -0.3039
      4 H          61.6620   84.9149   12.2041 H       1  UNL1        0.1494
      5 C          63.7552   86.4093   13.4863 C.3     1  UNL1        0.1795
      6 C          64.4411   86.9455   14.7077 C.2     1  UNL1        0.0891
      7 N          64.5981   88.4261   14.8906 N.2     1  UNL1       -0.2469
      8 C          64.0692   89.3703   13.8520 C.ar    1  UNL1        0.0902
      9 C          64.0770   90.8674   13.7596 C.ar    1  UNL1        0.0267
     10 C          63.3959   91.2563   12.4810 C.ar    1  UNL1        0.0371
     11 S          62.9671   89.9996   11.7832 S.2     1  UNL1       -0.0820
     12 C          63.3833   88.8340   12.6306 C.ar    1  UNL1        0.0826
     13 C          63.2263   87.3534   12.4477 C.2     1  UNL1        0.1944
     14 O          62.5404   86.8171   11.2263 O.2     1  UNL1       -0.2899
     15 C          62.6090   81.7165   12.5386 C.3     1  UNL1        0.0875
     16 C          62.2512   81.2479   13.7601 C.3     1  UNL1        0.0919
     17 N          62.0429   80.9168   14.4845 N.3     1  UNL1       -0.2713
     18 C          62.4591   79.9603   13.4067 C.3     1  UNL1        0.0722
     19 C          62.8548   80.4785   12.0559 C.3     1  UNL1        0.0191
     20 C          62.8343   81.9533   11.7829 C.3     1  UNL1        0.0221
     21 C          62.4180   82.9099   12.8607 C.3     1  UNL1        0.0191
     22 C          62.0223   82.3916   14.2117 C.3     1  UNL1        0.0722
@<TRIPOS>BOND
     1     1     2    2
     2     2     3   am
     3    15     3    1
     4    15    16    1
     5    16    17    1
     6    17    18    1
     7    18    19    1
     8    19    20    1
     9    20    21    1
    10    21    22    1
    11     2     5    1
    12     5     6    1
    13     6     7    2
    14     7     8    1
    15     8     9   ar
    16     9    10   ar
    17    10    11   ar
    18    11    12   ar
    19    12    13    1
    20    13    14    2
    21    20    15    1
    22    13     5    1
    23    22    17    1
    24    12     8   ar
    25     3     4    1
@<TRIPOS>MOLECULE
*****
 22 25 0 0 0
SMALL
GASTEIGER

@<TRIPOS>ATOM
      1 O          62.4302   84.0402   11.0979 O.2     1  UNL1       -0.2742
      2 C          62.4701   85.1542   12.1015 C.2     1  UNL1        0.2352
      3 N          62.4797   84.8419   13.5686 N.am    1  UNL1       -0.3039
      4 H          62.5049   85.4995   14.3009 H       1  UNL1        0.1494
      5 C          62.5002   86.5805   11.6381 C.3     1  UNL1        0.1795
      6 C          61.8939   86.9532   10.3178 C.2     1  UNL1        0.0891
      7 N          61.9240   88.3795    9.8543 N.2     1  UNL1       -0.2469
      8 C          62.5607   89.4332   10.7114 C.ar    1  UNL1        0.0902
      9 C          62.7394   90.9100   10.5195 C.ar    1  UNL1        0.0267
     10 C          63.4563   91.4501   11.7213 C.ar    1  UNL1        0.0371
     11 S          63.7206   90.3071   12.6559 S.2     1  UNL1       -0.0820
     12 C          63.1671   89.0605   12.0318 C.ar    1  UNL1        0.0826
     13 C          63.1369   87.6342   12.4951 C.2     1  UNL1        0.1944
     14 O          63.7433   87.2615   13.8155 O.2     1  UNL1       -0.2899
     15 C          62.4164   82.1798   13.8427 C.3     1  UNL1        0.0875
     16 C          63.6129   81.6904   13.4325 C.3     1  UNL1        0.0919
     17 N          64.3223   81.3470   13.1943 N.3     1  UNL1       -0.2713
     18 C          63.2587   80.4115   13.6876 C.3     1  UNL1        0.0722
     19 C          61.9354   80.9528   14.1413 C.3     1  UNL1        0.0191
     20 C          61.6757   82.4296   14.1016 C.3     1  UNL1        0.0221
     21 C          62.7394   83.3651   13.6083 C.3     1  UNL1        0.0191
     22 C          64.0628   82.8238   13.1545 C.3     1  UNL1        0.0722
@<TRIPOS>BOND
     1     1     2    2
     2     2     3   am
     3    15     3    1
     4    15    16    1
     5    16    17    1
     6    17    18    1
     7    18    19    1
     8    19    20    1
     9    20    21    1
    10    21    22    1
    11     2     5    1
    12     5     6    1
    13     6     7    2
    14     7     8    1
    15     8     9   ar
    16     9    10   ar
    17    10    11   ar
    18    11    12   ar
    19    12    13    1
    20    13    14    2
    21    20    15    1
    22    13     5    1
    23    22    17    1
    24    12     8   ar
    25     3     4    1
@<TRIPOS>MOLECULE
*****
 22 25 0 0 0
SMALL
GASTEIGER

@<TRIPOS>ATOM
      1 O          63.8699   88.1424   13.1123 O.2     1  UNL1       -0.2742
      2 C          62.9178   88.8963   12.2320 C.2     1  UNL1        0.2352
      3 N          62.7531   90.3776   12.4007 N.am    1  UNL1       -0.3039
      4 H          62.1566   90.9580   11.8748 H       1  UNL1        0.1494
      5 C          62.1303   88.1689   11.1827 C.3     1  UNL1        0.1795
      6 C          62.1296   86.6693   11.1507 C.2     1  UNL1        0.0891
      7 N          61.3421   85.9419   10.1014 N.2     1  UNL1       -0.2469
      8 C          60.5554   86.7142    9.0843 C.ar    1  UNL1        0.0902
      9 C          59.6908   86.2754    7.9398 C.ar    1  UNL1        0.0267
     10 C          59.1572   87.5039    7.2645 C.ar    1  UNL1        0.0371
     11 S          59.6920   88.7019    7.9916 S.2     1  UNL1       -0.0820
     12 C          60.5562   88.2138    9.1164 C.ar    1  UNL1        0.0826
     13 C          61.3436   88.9412   10.1656 C.2     1  UNL1        0.1944
     14 O          61.3444   90.4408   10.1976 O.2     1  UNL1       -0.2899
     15 C          64.3686   91.1633   14.3853 C.3     1  UNL1        0.0875
     16 C          65.4459   91.7717   13.8292 C.3     1  UNL1        0.0919
     17 N          66.1176   92.1485   13.5383 N.3     1  UNL1       -0.2713
     18 C          66.0129   92.0248   15.0295 C.3     1  UNL1        0.0722
     19 C          64.8216   91.3521   15.6444 C.3     1  UNL1        0.0191
     20 C          63.7350   90.8030   14.7682 C.3     1  UNL1        0.0221
     21 C          63.8397   90.9267   13.2770 C.3     1  UNL1        0.0191
     22 C          65.0311   91.5995   12.6620 C.3     1  UNL1        0.0722
@<TRIPOS>BOND
     1     1     2    2
     2     2     3   am
     3    15     3    1
     4    15    16    1
     5    16    17    1
     6    17    18    1
     7    18    19    1
     8    19    20    1
     9    20    21    1
    10    21    22    1
    11     2     5    1
    12     5     6    1
    13     6     7    2
    14     7     8    1
    15     8     9   ar
    16     9    10   ar
    17    10    11   ar
    18    11    12   ar
    19    12    13    1
    20    13    14    2
    21    20    15    1
    22    13     5    1
    23    22    17    1
    24    12     8   ar
    25     3     4    1
@<TRIPOS>MOLECULE
*****
 22 25 0 0 0
SMALL
GASTEIGER

@<TRIPOS>ATOM
      1 O          62.3401   86.2952    8.9083 O.2     1  UNL1       -0.2742
      2 C          61.8072   86.2830   10.3103 C.2     1  UNL1        0.2352
      3 N          60.6841   87.2004   10.6938 N.am    1  UNL1       -0.3039
      4 H          60.2677   87.2663   11.5835 H       1  UNL1        0.1494
      5 C          62.3975   85.3536   11.3291 C.3     1  UNL1        0.1795
      6 C          62.3120   83.8695   11.1289 C.2     1  UNL1        0.0891
      7 N          62.9022   82.9400   12.1477 N.2     1  UNL1       -0.2469
      8 C          63.5779   83.4948   13.3665 C.ar    1  UNL1        0.0902
      9 C          64.2466   82.8304   14.5333 C.ar    1  UNL1        0.0267
     10 C          64.7454   83.9039   15.4546 C.ar    1  UNL1        0.0371
     11 S          64.3849   85.2318   14.8572 S.2     1  UNL1       -0.0820
     12 C          63.6634   84.9789   13.5667 C.ar    1  UNL1        0.0826
     13 C          63.0732   85.9083   12.5479 C.2     1  UNL1        0.1944
     14 O          63.1586   87.3924   12.7481 O.2     1  UNL1       -0.2899
     15 C          60.0125   88.6263    8.5301 C.3     1  UNL1        0.0875
     16 C          59.1965   87.8606    7.7635 C.3     1  UNL1        0.0919
     17 N          58.6987   87.4341    7.2654 N.3     1  UNL1       -0.2713
     18 C          59.0595   88.8211    6.8229 C.3     1  UNL1        0.0722
     19 C          59.9618   89.6679    7.6706 C.3     1  UNL1        0.0191
     20 C          60.5033   89.1277    8.9609 C.3     1  UNL1        0.0221
     21 C          60.1425   87.7406    9.4035 C.3     1  UNL1        0.0191
     22 C          59.2402   86.8937    8.5557 C.3     1  UNL1        0.0722
@<TRIPOS>BOND
     1     1     2    2
     2     2     3   am
     3    15     3    1
     4    15    16    1
     5    16    17    1
     6    17    18    1
     7    18    19    1
     8    19    20    1
     9    20    21    1
    10    21    22    1
    11     2     5    1
    12     5     6    1
    13     6     7    2
    14     7     8    1
    15     8     9   ar
    16     9    10   ar
    17    10    11   ar
    18    11    12   ar
    19    12    13    1
    20    13    14    2
    21    20    15    1
    22    13     5    1
    23    22    17    1
    24    12     8   ar
    25     3     4    1
@<TRIPOS>MOLECULE
*****
 22 25 0 0 0
SMALL
GASTEIGER

@<TRIPOS>ATOM
      1 O          63.1135   87.0689   12.5472 O.2     1  UNL1       -0.2742
      2 C          62.5928   86.1485   11.4835 C.2     1  UNL1        0.2352
      3 N          61.9230   86.7126   10.2657 N.am    1  UNL1       -0.3039
      4 H          61.5504   86.1938    9.5165 H       1  UNL1        0.1494
      5 C          62.7420   84.6638   11.6374 C.3     1  UNL1        0.1795
      6 C          63.2557   83.8391   10.4947 C.2     1  UNL1        0.0891
      7 N          63.4048   82.3545   10.6486 N.2     1  UNL1       -0.2469
      8 C          63.0403   81.6946   11.9454 C.ar    1  UNL1        0.0902
      9 C          63.0808   80.2623   12.3889 C.ar    1  UNL1        0.0267
     10 C          62.5921   80.2017   13.8057 C.ar    1  UNL1        0.0371
     11 S          62.2496   81.5967   14.2380 S.2     1  UNL1       -0.0820
     12 C          62.5266   82.5194   13.0882 C.ar    1  UNL1        0.0826
     13 C          62.3775   84.0040   12.9342 C.2     1  UNL1        0.1944
     14 O          61.8638   84.8287   14.0770 O.2     1  UNL1       -0.2899
     15 C          61.9202   89.3801   10.4906 C.3     1  UNL1        0.0875
     16 C          60.7494   89.7481   11.0680 C.3     1  UNL1        0.0919
     17 N          60.0541   90.0194   11.4154 N.3     1  UNL1       -0.2713
     18 C          61.0617   91.0623   11.0324 C.3     1  UNL1        0.0722
     19 C          62.3565   90.6554   10.3938 C.3     1  UNL1        0.0191
     20 C          62.6436   89.2055   10.1382 C.3     1  UNL1        0.0221
     21 C          61.6359   88.1625   10.5212 C.3     1  UNL1        0.0191
     22 C          60.3410   88.5695   11.1599 C.3     1  UNL1        0.0722
@<TRIPOS>BOND
     1     1     2    2
     2     2     3   am
     3    15     3    1
     4    15    16    1
     5    16    17    1
     6    17    18    1
     7    18    19    1
     8    19    20    1
     9    20    21    1
    10    21    22    1
    11     2     5    1
    12     5     6    1
    13     6     7    2
    14     7     8    1
    15     8     9   ar
    16     9    10   ar
    17    10    11   ar
    18    11    12   ar
    19    12    13    1
    20    13    14    2
    21    20    15    1
    22    13     5    1
    23    22    17    1
    24    12     8   ar
    25     3     4    1
