@<TRIPOS>MOLECULE
*****
 31 33 0 0 0
SMALL
GASTEIGER

@<TRIPOS>ATOM
      1 C          64.4458   89.9507   14.8516 C.ar    1  UNL1        0.2033
      2 N          63.3842   89.8671   15.9079 N.ar    1  UNL1       -0.0556
      3 O          63.0001   88.4257   16.0660 O.2     1  UNL1       -0.3324
      4 C          63.8244   87.6185   15.1073 C.ar    1  UNL1        0.2600
      5 N          64.7179   88.5610   14.3568 N.ar    1  UNL1       -0.1870
      6 C          64.9522   91.6477   12.9506 C.ar    1  UNL1       -0.0231
      7 C          65.6239   92.9010   12.4729 C.ar    1  UNL1       -0.0260
      8 C          66.4609   93.7104   13.4185 C.ar    1  UNL1       -0.0046
      9 C          66.6263   93.2667   14.8418 C.ar    1  UNL1       -0.0002
     10 C          65.9546   92.0134   15.3194 C.ar    1  UNL1        0.0028
     11 C          65.1175   91.2040   14.3738 C.ar    1  UNL1        0.0349
     12 C          62.6188   90.9170   12.0724 C.3     1  UNL1        0.0050
     13 C          64.1152   90.8383   12.0050 C.3     1  UNL1        0.0261
     14 C          65.4586   93.3448   11.0496 C.3     1  UNL1        0.0264
     15 C          66.3902   94.3675   10.4699 C.3     1  UNL1        0.0106
     16 C          67.2818   94.0035    9.3198 C.3     1  UNL1        0.0421
     17 C          68.2154   92.8352    9.4352 C.2     1  UNL1        0.0503
     18 O          68.6537   92.3560   10.7874 O.co2   1  UNL1       -0.5492
     19 O          68.7108   92.1461    8.1984 O.co2   1  UNL1       -0.5492
     20 C          63.7655   86.1302   14.9303 C.ar    1  UNL1        0.0569
     21 C          63.3514   85.2545   16.0756 C.ar    1  UNL1        0.0079
     22 C          63.2925   83.7662   15.8985 C.ar    1  UNL1        0.0377
     23 C          63.6477   83.1535   14.5762 C.ar    1  UNL1        0.1479
     24 C          64.0619   84.0292   13.4309 C.ar    1  UNL1        0.1024
     25 C          64.1207   85.5175   13.6080 C.ar    1  UNL1        0.0181
     26 C          64.4171   83.4165   12.1086 C.1     1  UNL1        0.1035
     27 N          64.7723   82.8039   10.7864 N.1     1  UNL1       -0.1907
     28 O          63.5888   81.6652   14.3992 O.3     1  UNL1       -0.4785
     29 C          62.4351   81.0416   13.6711 C.3     1  UNL1        0.1662
     30 C          62.6721   80.2877   12.3961 C.3     1  UNL1        0.0472
     31 C          61.0444   81.1717   14.2180 C.3     1  UNL1        0.0472
@<TRIPOS>UNITY_ATOM_ATTR
18 1
charge -1
@<TRIPOS>BOND
     1    12    13    1
     2    13     6    1
     3     6     7   ar
     4     7    14    1
     5    14    15    1
     6    15    16    1
     7    16    17    1
     8    17    18   ar
     9    17    19   ar
    10     7     8   ar
    11     8     9   ar
    12     9    10   ar
    13    10    11   ar
    14    11     1    1
    15     1     2   ar
    16     2     3   ar
    17     3     4   ar
    18     4    20    1
    19    20    21   ar
    20    21    22   ar
    21    22    23   ar
    22    23    28    1
    23    28    29    1
    24    29    30    1
    25    29    31    1
    26    23    24   ar
    27    24    26    1
    28    26    27    3
    29    24    25   ar
    30     4     5   ar
    31    11     6   ar
    32     5     1   ar
    33    25    20   ar
@<TRIPOS>MOLECULE
*****
 31 33 0 0 0
SMALL
GASTEIGER

@<TRIPOS>ATOM
      1 C          62.3238   88.0199   11.1050 C.ar    1  UNL1        0.2033
      2 N          62.6495   87.1540   12.2857 N.ar    1  UNL1       -0.0556
      3 O          63.5043   87.9526   13.2246 O.2     1  UNL1       -0.3324
      4 C          63.7069   89.3122   12.6241 C.ar    1  UNL1        0.2600
      5 N          62.9774   89.3538   11.3141 N.ar    1  UNL1       -0.1870
      6 C          60.6328   88.6405    9.2327 C.ar    1  UNL1       -0.0231
      7 C          59.7999   88.2425    8.0505 C.ar    1  UNL1       -0.0260
      8 C          59.8250   86.8258    7.5582 C.ar    1  UNL1       -0.0046
      9 C          60.6830   85.8072    8.2482 C.ar    1  UNL1       -0.0002
     10 C          61.5159   86.2052    9.4304 C.ar    1  UNL1        0.0028
     11 C          61.4908   87.6219    9.9227 C.ar    1  UNL1        0.0349
     12 C          59.7196   90.4368   10.8727 C.3     1  UNL1        0.0050
     13 C          60.6077   90.0572    9.7250 C.3     1  UNL1        0.0261
     14 C          58.9418   89.2612    7.3605 C.3     1  UNL1        0.0264
     15 C          59.1681   89.5745    5.9112 C.3     1  UNL1        0.0106
     16 C          59.5359   90.9675    5.4935 C.3     1  UNL1        0.0421
     17 C          58.5550   91.8043    4.7269 C.2     1  UNL1        0.0503
     18 O          59.0387   92.7271    3.6478 O.co2   1  UNL1       -0.5492
     19 O          57.0905   91.7181    5.0393 O.co2   1  UNL1       -0.5492
     20 C          64.4999   90.4334   13.2276 C.ar    1  UNL1        0.0569
     21 C          64.8040   90.4310   14.6964 C.ar    1  UNL1        0.0079
     22 C          65.5970   91.5521   15.2999 C.ar    1  UNL1        0.0377
     23 C          66.0859   92.6756   14.4346 C.ar    1  UNL1        0.1479
     24 C          65.7818   92.6780   12.9658 C.ar    1  UNL1        0.1024
     25 C          64.9888   91.5569   12.3623 C.ar    1  UNL1        0.0181
     26 C          66.2706   93.8015   12.1004 C.1     1  UNL1        0.1035
     27 N          66.7595   94.9249   11.2352 N.1     1  UNL1       -0.1907
     28 O          66.8788   93.7967   15.0381 O.3     1  UNL1       -0.4785
     29 C          68.1959   93.5135   15.6977 C.3     1  UNL1        0.1662
     30 C          68.5860   92.1009   16.0179 C.3     1  UNL1        0.0472
     31 C          69.1230   94.6428   16.0371 C.3     1  UNL1        0.0472
@<TRIPOS>UNITY_ATOM_ATTR
18 1
charge -1
@<TRIPOS>BOND
     1    12    13    1
     2    13     6    1
     3     6     7   ar
     4     7    14    1
     5    14    15    1
     6    15    16    1
     7    16    17    1
     8    17    18   ar
     9    17    19   ar
    10     7     8   ar
    11     8     9   ar
    12     9    10   ar
    13    10    11   ar
    14    11     1    1
    15     1     2   ar
    16     2     3   ar
    17     3     4   ar
    18     4    20    1
    19    20    21   ar
    20    21    22   ar
    21    22    23   ar
    22    23    28    1
    23    28    29    1
    24    29    30    1
    25    29    31    1
    26    23    24   ar
    27    24    26    1
    28    26    27    3
    29    24    25   ar
    30     4     5   ar
    31    11     6   ar
    32     5     1   ar
    33    25    20   ar
@<TRIPOS>MOLECULE
*****
 31 33 0 0 0
SMALL
GASTEIGER

@<TRIPOS>ATOM
      1 C          62.4171   87.8799   11.4017 C.ar    1  UNL1        0.2033
      2 N          61.2211   88.6249   11.9159 N.ar    1  UNL1       -0.0556
      3 O          61.7114   89.8281   12.6654 O.2     1  UNL1       -0.3324
      4 C          63.2106   89.8268   12.6145 C.ar    1  UNL1        0.2600
      5 N          63.6467   88.6227   11.8335 N.ar    1  UNL1       -0.1870
      6 C          62.4763   85.2850   11.2866 C.ar    1  UNL1       -0.0231
      7 C          62.4478   84.0195   10.4819 C.ar    1  UNL1       -0.0260
      8 C          62.3318   84.0832    8.9877 C.ar    1  UNL1       -0.0046
      9 C          62.2441   85.4124    8.2983 C.ar    1  UNL1       -0.0002
     10 C          62.2726   86.6779    9.1029 C.ar    1  UNL1        0.0028
     11 C          62.3887   86.6143   10.5971 C.ar    1  UNL1        0.0349
     12 C          63.9433   85.2699   13.4308 C.3     1  UNL1        0.0050
     13 C          62.5924   85.2213   12.7807 C.3     1  UNL1        0.0261
     14 C          62.5355   82.6902   11.1714 C.3     1  UNL1        0.0264
     15 C          63.8759   82.1030   11.5008 C.3     1  UNL1        0.0106
     16 C          64.1498   81.5874   12.8825 C.3     1  UNL1        0.0421
     17 C          63.0113   81.3111   13.8193 C.2     1  UNL1        0.0503
     18 O          62.7171   82.2605   14.9427 O.co2   1  UNL1       -0.5492
     19 O          62.1671   80.0853   13.6326 O.co2   1  UNL1       -0.5492
     20 C          64.1148   90.8499   13.2355 C.ar    1  UNL1        0.0569
     21 C          64.3810   90.8184   14.7113 C.ar    1  UNL1        0.0079
     22 C          65.2852   91.8414   15.3323 C.ar    1  UNL1        0.0377
     23 C          65.9232   92.8961   14.4775 C.ar    1  UNL1        0.1479
     24 C          65.6570   92.9276   13.0016 C.ar    1  UNL1        0.1024
     25 C          64.7528   91.9045   12.3806 C.ar    1  UNL1        0.0181
     26 C          66.2950   93.9822   12.1468 C.1     1  UNL1        0.1035
     27 N          66.9330   95.0368   11.2920 N.1     1  UNL1       -0.1907
     28 O          66.8274   93.9192   15.0985 O.3     1  UNL1       -0.4785
     29 C          68.1354   93.4977   15.6999 C.3     1  UNL1        0.1662
     30 C          68.4274   92.0423   15.9156 C.3     1  UNL1        0.0472
     31 C          69.1514   94.5316   16.0856 C.3     1  UNL1        0.0472
@<TRIPOS>UNITY_ATOM_ATTR
18 1
charge -1
@<TRIPOS>BOND
     1    12    13    1
     2    13     6    1
     3     6     7   ar
     4     7    14    1
     5    14    15    1
     6    15    16    1
     7    16    17    1
     8    17    18   ar
     9    17    19   ar
    10     7     8   ar
    11     8     9   ar
    12     9    10   ar
    13    10    11   ar
    14    11     1    1
    15     1     2   ar
    16     2     3   ar
    17     3     4   ar
    18     4    20    1
    19    20    21   ar
    20    21    22   ar
    21    22    23   ar
    22    23    28    1
    23    28    29    1
    24    29    30    1
    25    29    31    1
    26    23    24   ar
    27    24    26    1
    28    26    27    3
    29    24    25   ar
    30     4     5   ar
    31    11     6   ar
    32     5     1   ar
    33    25    20   ar
@<TRIPOS>MOLECULE
*****
 31 33 0 0 0
SMALL
GASTEIGER

@<TRIPOS>ATOM
      1 C          63.9412   87.8357   14.6151 C.ar    1  UNL1        0.2033
      2 N          63.5092   87.3678   15.9732 N.ar    1  UNL1       -0.0556
      3 O          63.2342   85.8956   15.8904 O.2     1  UNL1       -0.3324
      4 C          63.4962   85.4536   14.4811 C.ar    1  UNL1        0.2600
      5 N          63.9331   86.6527   13.6930 N.ar    1  UNL1       -0.1870
      6 C          63.9142   89.7959   12.9101 C.ar    1  UNL1       -0.0231
      7 C          64.2885   91.2002   12.5392 C.ar    1  UNL1       -0.0260
      8 C          65.0641   92.0489   13.5026 C.ar    1  UNL1       -0.0046
      9 C          65.4654   91.4933   14.8368 C.ar    1  UNL1       -0.0002
     10 C          65.0911   90.0889   15.2076 C.ar    1  UNL1        0.0028
     11 C          64.3155   89.2402   14.2442 C.ar    1  UNL1        0.0349
     12 C          61.6645   89.1646   11.7741 C.3     1  UNL1        0.0050
     13 C          63.1385   88.9472   11.9467 C.3     1  UNL1        0.0261
     14 C          63.8872   91.7560   11.2050 C.3     1  UNL1        0.0264
     15 C          64.8577   92.5819   10.4139 C.3     1  UNL1        0.0106
     16 C          66.3323   92.4319   10.6443 C.3     1  UNL1        0.0421
     17 C          67.2537   93.5860   10.3815 C.2     1  UNL1        0.0503
     18 O          66.9529   94.9341   10.9664 O.co2   1  UNL1       -0.5492
     19 O          68.4759   93.3920    9.5338 O.co2   1  UNL1       -0.5492
     20 C          63.3474   84.0576   13.9528 C.ar    1  UNL1        0.0569
     21 C          64.4141   83.4692   13.0777 C.ar    1  UNL1        0.0079
     22 C          64.2653   82.0733   12.5494 C.ar    1  UNL1        0.0377
     23 C          63.0497   81.2657   12.8962 C.ar    1  UNL1        0.1479
     24 C          61.9830   81.8541   13.7713 C.ar    1  UNL1        0.1024
     25 C          62.1318   83.2500   14.2996 C.ar    1  UNL1        0.0181
     26 C          60.7674   81.0465   14.1181 C.1     1  UNL1        0.1035
     27 N          59.5519   80.2390   14.4649 N.1     1  UNL1       -0.1907
     28 O          62.9009   79.8698   12.3679 O.3     1  UNL1       -0.4785
     29 C          62.8867   79.6255   10.8880 C.3     1  UNL1        0.1662
     30 C          63.0361   80.7755    9.9365 C.3     1  UNL1        0.0472
     31 C          62.7232   78.2313   10.3594 C.3     1  UNL1        0.0472
@<TRIPOS>UNITY_ATOM_ATTR
18 1
charge -1
@<TRIPOS>BOND
     1    12    13    1
     2    13     6    1
     3     6     7   ar
     4     7    14    1
     5    14    15    1
     6    15    16    1
     7    16    17    1
     8    17    18   ar
     9    17    19   ar
    10     7     8   ar
    11     8     9   ar
    12     9    10   ar
    13    10    11   ar
    14    11     1    1
    15     1     2   ar
    16     2     3   ar
    17     3     4   ar
    18     4    20    1
    19    20    21   ar
    20    21    22   ar
    21    22    23   ar
    22    23    28    1
    23    28    29    1
    24    29    30    1
    25    29    31    1
    26    23    24   ar
    27    24    26    1
    28    26    27    3
    29    24    25   ar
    30     4     5   ar
    31    11     6   ar
    32     5     1   ar
    33    25    20   ar
@<TRIPOS>MOLECULE
*****
 31 33 0 0 0
SMALL
GASTEIGER

@<TRIPOS>ATOM
      1 C          61.2948   89.3042   10.6286 C.ar    1  UNL1        0.2033
      2 N          60.7262   89.3511   12.0158 N.ar    1  UNL1       -0.0556
      3 O          61.7349   90.0116   12.9082 O.2     1  UNL1       -0.3324
      4 C          62.9270   90.3730   12.0724 C.ar    1  UNL1        0.2600
      5 N          62.6550   89.9358   10.6636 N.ar    1  UNL1       -0.1870
      6 C          60.8282   87.2850    9.0617 C.ar    1  UNL1       -0.0231
      7 C          60.1549   86.7080    7.8519 C.ar    1  UNL1       -0.0260
      8 C          59.2750   87.5732    6.9991 C.ar    1  UNL1       -0.0046
      9 C          59.0683   89.0153    7.3561 C.ar    1  UNL1       -0.0002
     10 C          59.7416   89.5923    8.5659 C.ar    1  UNL1        0.0028
     11 C          60.6215   88.7272    9.4187 C.ar    1  UNL1        0.0349
     12 C          61.2468   85.9930   11.2764 C.3     1  UNL1        0.0050
     13 C          61.7081   86.4199    9.9145 C.3     1  UNL1        0.0261
     14 C          60.3615   85.2658    7.4948 C.3     1  UNL1        0.0264
     15 C          61.3134   84.8940    6.3969 C.3     1  UNL1        0.0106
     16 C          62.6609   84.3267    6.7327 C.3     1  UNL1        0.0421
     17 C          63.3496   84.7309    8.0024 C.2     1  UNL1        0.0503
     18 O          63.5065   83.7410    9.1184 O.co2   1  UNL1       -0.5492
     19 O          63.8814   86.1249    8.1561 O.co2   1  UNL1       -0.5492
     20 C          64.1724   91.0522   12.5599 C.ar    1  UNL1        0.0569
     21 C          64.8663   90.5518   13.7920 C.ar    1  UNL1        0.0079
     22 C          66.1117   91.2310   14.2795 C.ar    1  UNL1        0.0377
     23 C          66.6630   92.4107   13.5349 C.ar    1  UNL1        0.1479
     24 C          65.9691   92.9112   12.3029 C.ar    1  UNL1        0.1024
     25 C          64.7237   92.2319   11.8154 C.ar    1  UNL1        0.0181
     26 C          66.5205   94.0909   11.5583 C.1     1  UNL1        0.1035
     27 N          67.0718   95.2705   10.8138 N.1     1  UNL1       -0.1907
     28 O          67.9084   93.0900   14.0224 O.3     1  UNL1       -0.4785
     29 C          68.0759   93.3913   15.4823 C.3     1  UNL1        0.1662
     30 C          67.1150   92.8181   16.4815 C.3     1  UNL1        0.0472
     31 C          69.2041   94.2659   15.9431 C.3     1  UNL1        0.0472
@<TRIPOS>UNITY_ATOM_ATTR
18 1
charge -1
@<TRIPOS>BOND
     1    12    13    1
     2    13     6    1
     3     6     7   ar
     4     7    14    1
     5    14    15    1
     6    15    16    1
     7    16    17    1
     8    17    18   ar
     9    17    19   ar
    10     7     8   ar
    11     8     9   ar
    12     9    10   ar
    13    10    11   ar
    14    11     1    1
    15     1     2   ar
    16     2     3   ar
    17     3     4   ar
    18     4    20    1
    19    20    21   ar
    20    21    22   ar
    21    22    23   ar
    22    23    28    1
    23    28    29    1
    24    29    30    1
    25    29    31    1
    26    23    24   ar
    27    24    26    1
    28    26    27    3
    29    24    25   ar
    30     4     5   ar
    31    11     6   ar
    32     5     1   ar
    33    25    20   ar
@<TRIPOS>MOLECULE
*****
 31 33 0 0 0
SMALL
GASTEIGER

@<TRIPOS>ATOM
      1 C          63.9515   90.5403   13.0472 C.ar    1  UNL1        0.2033
      2 N          62.6060   90.7628   12.4226 N.ar    1  UNL1       -0.0556
      3 O          62.0416   89.4244   12.0484 O.2     1  UNL1       -0.3324
      4 C          63.0383   88.3746   12.4418 C.ar    1  UNL1        0.2600
      5 N          64.2186   89.0644   13.0591 N.ar    1  UNL1       -0.1870
      6 C          65.4156   92.6470   12.6364 C.ar    1  UNL1       -0.0231
      7 C          66.3328   93.7132   13.1577 C.ar    1  UNL1       -0.0260
      8 C          66.7033   93.7391   14.6110 C.ar    1  UNL1       -0.0046
      9 C          66.1565   92.6988   15.5430 C.ar    1  UNL1       -0.0002
     10 C          65.2393   91.6325   15.0218 C.ar    1  UNL1        0.0028
     11 C          64.8688   91.6066   13.5685 C.ar    1  UNL1        0.0349
     12 C          66.0904   92.3290   10.1478 C.3     1  UNL1        0.0050
     13 C          65.0451   92.6211   11.1831 C.3     1  UNL1        0.0261
     14 C          66.8797   94.7536   12.2257 C.3     1  UNL1        0.0264
     15 C          65.9543   95.7389   11.5756 C.3     1  UNL1        0.0106
     16 C          66.4733   96.6743   10.5240 C.3     1  UNL1        0.0421
     17 C          66.7497   96.1674    9.1396 C.2     1  UNL1        0.0503
     18 O          65.9116   96.6370    7.9876 O.co2   1  UNL1       -0.5492
     19 O          67.8642   95.1907    8.9072 O.co2   1  UNL1       -0.5492
     20 C          62.8821   86.8950   12.2514 C.ar    1  UNL1        0.0569
     21 C          62.2521   86.3625   10.9986 C.ar    1  UNL1        0.0079
     22 C          62.0958   84.8829   10.8082 C.ar    1  UNL1        0.0377
     23 C          62.5696   83.9358   11.8705 C.ar    1  UNL1        0.1479
     24 C          63.1996   84.4683   13.1233 C.ar    1  UNL1        0.1024
     25 C          63.3558   85.9479   13.3138 C.ar    1  UNL1        0.0181
     26 C          63.6733   83.5212   14.1857 C.1     1  UNL1        0.1035
     27 N          64.1471   82.5741   15.2480 N.1     1  UNL1       -0.1907
     28 O          62.4133   82.4562   11.6801 O.3     1  UNL1       -0.4785
     29 C          63.3209   81.7212   10.7387 C.3     1  UNL1        0.1662
     30 C          64.5352   82.4033   10.1817 C.3     1  UNL1        0.0472
     31 C          63.0142   80.3041   10.3541 C.3     1  UNL1        0.0472
@<TRIPOS>UNITY_ATOM_ATTR
18 1
charge -1
@<TRIPOS>BOND
     1    12    13    1
     2    13     6    1
     3     6     7   ar
     4     7    14    1
     5    14    15    1
     6    15    16    1
     7    16    17    1
     8    17    18   ar
     9    17    19   ar
    10     7     8   ar
    11     8     9   ar
    12     9    10   ar
    13    10    11   ar
    14    11     1    1
    15     1     2   ar
    16     2     3   ar
    17     3     4   ar
    18     4    20    1
    19    20    21   ar
    20    21    22   ar
    21    22    23   ar
    22    23    28    1
    23    28    29    1
    24    29    30    1
    25    29    31    1
    26    23    24   ar
    27    24    26    1
    28    26    27    3
    29    24    25   ar
    30     4     5   ar
    31    11     6   ar
    32     5     1   ar
    33    25    20   ar
@<TRIPOS>MOLECULE
*****
 31 33 0 0 0
SMALL
GASTEIGER

@<TRIPOS>ATOM
      1 C          64.8095   90.3955   14.5692 C.ar    1  UNL1        0.2033
      2 N          64.0877   89.9526   15.8072 N.ar    1  UNL1       -0.0556
      3 O          63.4815   88.6080   15.5344 O.2     1  UNL1       -0.3324
      4 C          63.8287   88.2198   14.1276 C.ar    1  UNL1        0.2600
      5 N          64.6494   89.3246   13.5311 N.ar    1  UNL1       -0.1870
      6 C          65.4477   92.4527   13.1163 C.ar    1  UNL1       -0.0231
      7 C          66.1979   93.7404   12.9461 C.ar    1  UNL1       -0.0260
      8 C          67.0601   94.2587   14.0588 C.ar    1  UNL1       -0.0046
      9 C          67.1722   93.4893   15.3415 C.ar    1  UNL1       -0.0002
     10 C          66.4220   92.2016   15.5116 C.ar    1  UNL1        0.0028
     11 C          65.5597   91.6833   14.3990 C.ar    1  UNL1        0.0349
     12 C          64.9638   92.1982   10.5764 C.3     1  UNL1        0.0050
     13 C          64.5855   91.9344   12.0037 C.3     1  UNL1        0.0261
     14 C          66.0859   94.5098   11.6634 C.3     1  UNL1        0.0264
     15 C          66.3233   95.9909   11.6540 C.3     1  UNL1        0.0106
     16 C          66.7306   96.6772   10.3838 C.3     1  UNL1        0.0421
     17 C          67.2156   95.8690    9.2170 C.2     1  UNL1        0.0503
     18 O          68.2899   94.8405    9.4117 O.co2   1  UNL1       -0.5492
     19 O          66.6262   96.0895    7.8553 O.co2   1  UNL1       -0.5492
     20 C          63.4258   86.9499   13.4384 C.ar    1  UNL1        0.0569
     21 C          63.7423   85.6240   14.0644 C.ar    1  UNL1        0.0079
     22 C          63.3394   84.3541   13.3752 C.ar    1  UNL1        0.0377
     23 C          62.6201   84.4101   12.0601 C.ar    1  UNL1        0.1479
     24 C          62.3037   85.7360   11.4341 C.ar    1  UNL1        0.1024
     25 C          62.7065   87.0059   12.1233 C.ar    1  UNL1        0.0181
     26 C          61.5844   85.7920   10.1190 C.1     1  UNL1        0.1035
     27 N          60.8652   85.8480    8.8040 N.1     1  UNL1       -0.1907
     28 O          62.2173   83.1402   11.3709 O.3     1  UNL1       -0.4785
     29 C          63.2084   82.0252   11.2137 C.3     1  UNL1        0.1662
     30 C          63.0087   80.7347   11.9518 C.3     1  UNL1        0.0472
     31 C          64.3991   82.2007   10.3185 C.3     1  UNL1        0.0472
@<TRIPOS>UNITY_ATOM_ATTR
18 1
charge -1
@<TRIPOS>BOND
     1    12    13    1
     2    13     6    1
     3     6     7   ar
     4     7    14    1
     5    14    15    1
     6    15    16    1
     7    16    17    1
     8    17    18   ar
     9    17    19   ar
    10     7     8   ar
    11     8     9   ar
    12     9    10   ar
    13    10    11   ar
    14    11     1    1
    15     1     2   ar
    16     2     3   ar
    17     3     4   ar
    18     4    20    1
    19    20    21   ar
    20    21    22   ar
    21    22    23   ar
    22    23    28    1
    23    28    29    1
    24    29    30    1
    25    29    31    1
    26    23    24   ar
    27    24    26    1
    28    26    27    3
    29    24    25   ar
    30     4     5   ar
    31    11     6   ar
    32     5     1   ar
    33    25    20   ar
@<TRIPOS>MOLECULE
*****
 31 33 0 0 0
SMALL
GASTEIGER

@<TRIPOS>ATOM
      1 C          61.3327   89.1787   10.1498 C.ar    1  UNL1        0.2033
      2 N          60.3895   90.1415   10.8082 N.ar    1  UNL1       -0.0556
      3 O          61.2026   91.1018   11.6247 O.2     1  UNL1       -0.3324
      4 C          62.6483   90.7326   11.4710 C.ar    1  UNL1        0.2600
      5 N          62.7287   89.5440   10.5595 N.ar    1  UNL1       -0.1870
      6 C          61.6762   86.7403    9.3214 C.ar    1  UNL1       -0.0231
      7 C          61.2911   85.6107    8.4129 C.ar    1  UNL1       -0.0260
      8 C          60.1772   85.7896    7.4243 C.ar    1  UNL1       -0.0046
      9 C          59.4485   87.0982    7.3442 C.ar    1  UNL1       -0.0002
     10 C          59.8337   88.2279    8.2527 C.ar    1  UNL1        0.0028
     11 C          60.9476   88.0490    9.2413 C.ar    1  UNL1        0.0349
     12 C          62.4813   86.1750   11.7260 C.3     1  UNL1        0.0050
     13 C          62.7901   86.5614   10.3099 C.3     1  UNL1        0.0261
     14 C          62.0198   84.3020    8.4929 C.3     1  UNL1        0.0264
     15 C          63.4112   84.2512    9.0508 C.3     1  UNL1        0.0106
     16 C          63.8795   83.0320    9.7886 C.3     1  UNL1        0.0421
     17 C          63.6563   82.9186   11.2676 C.2     1  UNL1        0.0503
     18 O          64.6794   83.4560   12.2239 O.co2   1  UNL1       -0.5492
     19 O          62.4100   82.2678   11.7902 O.co2   1  UNL1       -0.5492
     20 C          63.8097   91.4295   12.1156 C.ar    1  UNL1        0.0569
     21 C          64.2206   91.0673   13.5120 C.ar    1  UNL1        0.0079
     22 C          65.3819   91.7643   14.1566 C.ar    1  UNL1        0.0377
     23 C          66.1324   92.8233   13.4048 C.ar    1  UNL1        0.1479
     24 C          65.7215   93.1854   12.0084 C.ar    1  UNL1        0.1024
     25 C          64.5602   92.4885   11.3638 C.ar    1  UNL1        0.0181
     26 C          66.4720   94.2445   11.2566 C.1     1  UNL1        0.1035
     27 N          67.2224   95.3035   10.5048 N.1     1  UNL1       -0.1907
     28 O          67.2937   93.5202   14.0494 O.3     1  UNL1       -0.4785
     29 C          68.3528   92.7216   14.7499 C.3     1  UNL1        0.1662
     30 C          69.4385   92.0567   13.9565 C.3     1  UNL1        0.0472
     31 C          68.3264   92.5879   16.2437 C.3     1  UNL1        0.0472
@<TRIPOS>UNITY_ATOM_ATTR
18 1
charge -1
@<TRIPOS>BOND
     1    12    13    1
     2    13     6    1
     3     6     7   ar
     4     7    14    1
     5    14    15    1
     6    15    16    1
     7    16    17    1
     8    17    18   ar
     9    17    19   ar
    10     7     8   ar
    11     8     9   ar
    12     9    10   ar
    13    10    11   ar
    14    11     1    1
    15     1     2   ar
    16     2     3   ar
    17     3     4   ar
    18     4    20    1
    19    20    21   ar
    20    21    22   ar
    21    22    23   ar
    22    23    28    1
    23    28    29    1
    24    29    30    1
    25    29    31    1
    26    23    24   ar
    27    24    26    1
    28    26    27    3
    29    24    25   ar
    30     4     5   ar
    31    11     6   ar
    32     5     1   ar
    33    25    20   ar
