@<TRIPOS>MOLECULE
*****
 32 37 0 0 0
SMALL
GASTEIGER

@<TRIPOS>ATOM
      1 C          63.3802   89.6067   12.8317 C.ar    1  UNL1        0.0198
      2 C          63.1230   89.3761   14.2913 C.ar    1  UNL1        0.0146
      3 C          63.7522   90.2743   15.3149 C.ar    1  UNL1        0.0786
      4 CL         63.4949   90.0437   16.7746 Cl      1  UNL1       -0.0806
      5 C          64.6384   91.4031   14.8786 C.ar    1  UNL1        0.1326
      6 N          65.3911   92.4448   15.6521 N.ar    1  UNL1       -0.1276
      7 N          66.1134   93.3192   14.6704 N.ar    1  UNL1       -0.0598
      8 N          65.8072   92.8179   13.2902 N.ar    1  UNL1       -0.2141
      9 C          64.8956   91.6336   13.4189 C.ar    1  UNL1        0.1043
     10 C          64.2665   90.7354   12.3954 C.ar    1  UNL1        0.0223
     11 C          66.3222   93.3988   12.0068 C.2     1  UNL1        0.0681
     12 C          66.9895   92.5128   10.9970 C.2     1  UNL1        0.0153
     13 C          67.5045   93.0938    9.7134 C.2     1  UNL1        0.0041
     14 C          67.3522   94.5606    9.4398 C.2     1  UNL1        0.0367
     15 C          67.7576   95.4113    8.2727 C.2     1  UNL1        0.1233
     16 N          67.3408   96.8231    8.5612 N.2     1  UNL1       -0.1467
     17 N          66.6778   96.8449    9.9066 N.2     1  UNL1       -0.1519
     18 C          66.6849   95.4466   10.4496 C.2     1  UNL1        0.0880
     19 C          66.1699   94.8658   11.7331 C.3     1  UNL1        0.0934
     20 N          62.7903   87.2090   11.8078 N.ar    1  UNL1       -0.2448
     21 N          62.0357   86.7259   10.6047 N.ar    1  UNL1       -0.1673
     22 C          61.5302   87.9268    9.8616 C.ar    1  UNL1        0.1217
     23 C          61.9723   89.1521   10.6054 C.ar    1  UNL1        0.0412
     24 C          62.7511   88.7084   11.8082 C.ar    1  UNL1        0.0799
     25 C          63.4655   86.3444   12.8308 C.3     1  UNL1        0.1727
     26 CL         61.8441   80.6004   13.4451 Cl      1  UNL1       -0.0806
     27 C          62.2494   82.0364   13.2916 C.ar    1  UNL1        0.0768
     28 C          62.7601   82.5346   11.9720 C.ar    1  UNL1        0.0142
     29 C          63.1654   83.9706   11.8184 C.ar    1  UNL1        0.0176
     30 C          63.0601   84.9084   12.9844 C.ar    1  UNL1        0.0837
     31 N          62.5496   84.4102   14.3039 N.ar    1  UNL1       -0.2453
     32 C          62.1442   82.9742   14.4575 C.ar    1  UNL1        0.1098
@<TRIPOS>BOND
     1    26    27    1
     2    27    28   ar
     3    28    29   ar
     4    29    30   ar
     5    30    25    1
     6    25    20    1
     7    20    21   ar
     8    21    22   ar
     9    22    23   ar
    10    23    24   ar
    11    24     1    1
    12     1     2   ar
    13     2     3   ar
    14     3     4    1
    15     3     5   ar
    16     5     6   ar
    17     6     7   ar
    18     7     8   ar
    19     8    11    1
    20    11    12    2
    21    12    13    1
    22    13    14    2
    23    14    15    1
    24    15    16    2
    25    16    17    1
    26    17    18    2
    27    18    19    1
    28     8     9   ar
    29     9    10   ar
    30    30    31   ar
    31    31    32   ar
    32    32    27   ar
    33    24    20   ar
    34    10     1   ar
    35     9     5   ar
    36    19    11    1
    37    18    14    1
@<TRIPOS>MOLECULE
*****
 32 37 0 0 0
SMALL
GASTEIGER

@<TRIPOS>ATOM
      1 C          63.9759   89.3173   14.7219 C.ar    1  UNL1        0.0198
      2 C          64.9726   90.3931   15.0366 C.ar    1  UNL1        0.0146
      3 C          65.3023   91.4342   14.0081 C.ar    1  UNL1        0.0786
      4 CL         66.2991   92.5101   14.3228 Cl      1  UNL1       -0.0806
      5 C          64.6352   91.3993   12.6651 C.ar    1  UNL1        0.1326
      6 N          64.7579   92.2842   11.4602 N.ar    1  UNL1       -0.1276
      7 N          63.8371   91.7552   10.4009 N.ar    1  UNL1       -0.0598
      8 N          63.1452   90.5434   10.9511 N.ar    1  UNL1       -0.2141
      9 C          63.6385   90.3234   12.3505 C.ar    1  UNL1        0.1043
     10 C          63.3088   89.2824   13.3789 C.ar    1  UNL1        0.0223
     11 C          62.1370   89.6997   10.2288 C.2     1  UNL1        0.0681
     12 C          60.7839   90.2602    9.9053 C.2     1  UNL1        0.0153
     13 C          59.7756   89.4165    9.1829 C.2     1  UNL1        0.0041
     14 C          60.1207   88.0124    8.7840 C.2     1  UNL1        0.0367
     15 C          59.3384   86.9512    8.0684 C.2     1  UNL1        0.1233
     16 N          60.2081   85.7349    7.9496 N.2     1  UNL1       -0.1467
     17 N          61.5280   86.0443    8.5919 N.2     1  UNL1       -0.1519
     18 C          61.4739   87.4518    9.1076 C.2     1  UNL1        0.0880
     19 C          62.4821   88.2954    9.8299 C.3     1  UNL1        0.0934
     20 N          63.9511   86.8109   15.6508 N.ar    1  UNL1       -0.2448
     21 N          63.4471   86.1469   16.8979 N.ar    1  UNL1       -0.1673
     22 C          62.8307   87.2018   17.7680 C.ar    1  UNL1        0.1217
     23 C          62.9538   88.5178   17.0589 C.ar    1  UNL1        0.0412
     24 C          63.6462   88.2762   15.7504 C.ar    1  UNL1        0.0799
     25 C          64.6392   86.1294   14.5054 C.3     1  UNL1        0.1727
     26 CL         62.3571   81.0762   12.2127 Cl      1  UNL1       -0.0806
     27 C          62.9277   82.3394   12.7859 C.ar    1  UNL1        0.0768
     28 C          62.7095   83.6470   12.0839 C.ar    1  UNL1        0.0142
     29 C          63.2800   84.9103   12.6571 C.ar    1  UNL1        0.0176
     30 C          64.0687   84.8660   13.9322 C.ar    1  UNL1        0.0837
     31 N          64.2869   83.5585   14.6342 N.ar    1  UNL1       -0.2453
     32 C          63.7163   82.2952   14.0610 C.ar    1  UNL1        0.1098
@<TRIPOS>BOND
     1    26    27    1
     2    27    28   ar
     3    28    29   ar
     4    29    30   ar
     5    30    25    1
     6    25    20    1
     7    20    21   ar
     8    21    22   ar
     9    22    23   ar
    10    23    24   ar
    11    24     1    1
    12     1     2   ar
    13     2     3   ar
    14     3     4    1
    15     3     5   ar
    16     5     6   ar
    17     6     7   ar
    18     7     8   ar
    19     8    11    1
    20    11    12    2
    21    12    13    1
    22    13    14    2
    23    14    15    1
    24    15    16    2
    25    16    17    1
    26    17    18    2
    27    18    19    1
    28     8     9   ar
    29     9    10   ar
    30    30    31   ar
    31    31    32   ar
    32    32    27   ar
    33    24    20   ar
    34    10     1   ar
    35     9     5   ar
    36    19    11    1
    37    18    14    1
@<TRIPOS>MOLECULE
*****
 32 37 0 0 0
SMALL
GASTEIGER

@<TRIPOS>ATOM
      1 C          63.7902   86.4092   14.7697 C.ar    1  UNL1        0.0198
      2 C          63.3110   86.2159   16.1779 C.ar    1  UNL1        0.0146
      3 C          63.0707   87.4063   17.0584 C.ar    1  UNL1        0.0786
      4 CL         62.5915   87.2129   18.4667 Cl      1  UNL1       -0.0806
      5 C          63.3095   88.7899   16.5307 C.ar    1  UNL1        0.1326
      6 N          63.1606   90.1435   17.1596 N.ar    1  UNL1       -0.1276
      7 N          63.5478   91.1734   16.1400 N.ar    1  UNL1       -0.0598
      8 N          63.9359   90.4563   14.8810 N.ar    1  UNL1       -0.2141
      9 C          63.7887   88.9832   15.1225 C.ar    1  UNL1        0.1043
     10 C          64.0290   87.7928   14.2420 C.ar    1  UNL1        0.0223
     11 C          64.3913   91.0993   13.6047 C.2     1  UNL1        0.0681
     12 C          63.6341   90.8595   12.3323 C.2     1  UNL1        0.0153
     13 C          64.0895   91.5026   11.0559 C.2     1  UNL1        0.0041
     14 C          65.3021   92.3854   11.0519 C.2     1  UNL1        0.0367
     15 C          65.9841   93.1493    9.9557 C.2     1  UNL1        0.1233
     16 N          67.1627   93.8611   10.5507 N.2     1  UNL1       -0.1467
     17 N          67.2093   93.5372   12.0147 N.2     1  UNL1       -0.1519
     18 C          66.0594   92.6252   12.3245 C.2     1  UNL1        0.0880
     19 C          65.6040   91.9822   13.6008 C.3     1  UNL1        0.0934
     20 N          63.4197   84.9827   12.5397 N.ar    1  UNL1       -0.2448
     21 N          63.9356   83.6735   12.0201 N.ar    1  UNL1       -0.1673
     22 C          64.8652   83.1005   13.0484 C.ar    1  UNL1        0.1217
     23 C          64.9239   84.0556   14.2036 C.ar    1  UNL1        0.0412
     24 C          64.0305   85.2188   13.8892 C.ar    1  UNL1        0.0799
     25 C          62.4613   85.8954   11.8337 C.3     1  UNL1        0.1727
     26 CL         61.3172   85.1094    5.9965 Cl      1  UNL1       -0.0806
     27 C          61.6032   85.3060    7.4559 C.ar    1  UNL1        0.0768
     28 C          62.8907   84.8067    8.0416 C.ar    1  UNL1        0.0142
     29 C          63.1768   85.0031    9.5010 C.ar    1  UNL1        0.0176
     30 C          62.1753   85.6989   10.3744 C.ar    1  UNL1        0.0837
     31 N          60.8878   86.1982    9.7886 N.ar    1  UNL1       -0.2453
     32 C          60.6018   86.0017    8.3293 C.ar    1  UNL1        0.1098
@<TRIPOS>BOND
     1    26    27    1
     2    27    28   ar
     3    28    29   ar
     4    29    30   ar
     5    30    25    1
     6    25    20    1
     7    20    21   ar
     8    21    22   ar
     9    22    23   ar
    10    23    24   ar
    11    24     1    1
    12     1     2   ar
    13     2     3   ar
    14     3     4    1
    15     3     5   ar
    16     5     6   ar
    17     6     7   ar
    18     7     8   ar
    19     8    11    1
    20    11    12    2
    21    12    13    1
    22    13    14    2
    23    14    15    1
    24    15    16    2
    25    16    17    1
    26    17    18    2
    27    18    19    1
    28     8     9   ar
    29     9    10   ar
    30    30    31   ar
    31    31    32   ar
    32    32    27   ar
    33    24    20   ar
    34    10     1   ar
    35     9     5   ar
    36    19    11    1
    37    18    14    1
@<TRIPOS>MOLECULE
*****
 32 37 0 0 0
SMALL
GASTEIGER

@<TRIPOS>ATOM
      1 C          62.3373   85.6303   10.4921 C.ar    1  UNL1        0.0198
      2 C          61.1280   85.6026    9.6053 C.ar    1  UNL1        0.0146
      3 C          60.3277   86.8528    9.3889 C.ar    1  UNL1        0.0786
      4 CL         59.1183   86.8250    8.5020 Cl      1  UNL1       -0.0806
      5 C          60.7369   88.1306   10.0595 C.ar    1  UNL1        0.1326
      6 N          60.1485   89.5101   10.0349 N.ar    1  UNL1       -0.1276
      7 N          60.9942   90.3904   10.9065 N.ar    1  UNL1       -0.0598
      8 N          62.1054   89.5549   11.4699 N.ar    1  UNL1       -0.2141
      9 C          61.9464   88.1583   10.9464 C.ar    1  UNL1        0.1043
     10 C          62.7466   86.9081   11.1627 C.ar    1  UNL1        0.0223
     11 C          63.1858   90.0323   12.3944 C.2     1  UNL1        0.0681
     12 C          63.5894   89.1952   13.5718 C.2     1  UNL1        0.0153
     13 C          64.6699   89.6725   14.4964 C.2     1  UNL1        0.0041
     14 C          65.3467   90.9870   14.2435 C.2     1  UNL1        0.0367
     15 C          66.4364   91.7123   14.9762 C.2     1  UNL1        0.1233
     16 N          66.7062   92.9976   14.2516 N.2     1  UNL1       -0.1467
     17 N          65.7833   93.0667   13.0710 N.2     1  UNL1       -0.1519
     18 C          64.9431   91.8241   13.0660 C.2     1  UNL1        0.0880
     19 C          63.8627   91.3468   12.1415 C.3     1  UNL1        0.0934
     20 N          63.0194   83.4490   11.8785 N.ar    1  UNL1       -0.2448
     21 N          64.0054   82.3351   11.6858 N.ar    1  UNL1       -0.1673
     22 C          64.7329   82.5778   10.3967 C.ar    1  UNL1        0.1217
     23 C          64.1966   83.8417    9.7926 C.ar    1  UNL1        0.0412
     24 C          63.1376   84.3801   10.7084 C.ar    1  UNL1        0.0799
     25 C          62.0802   83.6045   13.0376 C.3     1  UNL1        0.1727
     26 CL         63.5573   87.1601   17.6394 Cl      1  UNL1       -0.0806
     27 C          63.1880   86.2712   16.4890 C.ar    1  UNL1        0.0768
     28 C          64.1478   86.0776   15.3526 C.ar    1  UNL1        0.0142
     29 C          63.7786   85.1887   14.2021 C.ar    1  UNL1        0.0176
     30 C          62.4495   84.4934   14.1881 C.ar    1  UNL1        0.0837
     31 N          61.4897   84.6870   15.3245 N.ar    1  UNL1       -0.2453
     32 C          61.8590   85.5759   16.4749 C.ar    1  UNL1        0.1098
@<TRIPOS>BOND
     1    26    27    1
     2    27    28   ar
     3    28    29   ar
     4    29    30   ar
     5    30    25    1
     6    25    20    1
     7    20    21   ar
     8    21    22   ar
     9    22    23   ar
    10    23    24   ar
    11    24     1    1
    12     1     2   ar
    13     2     3   ar
    14     3     4    1
    15     3     5   ar
    16     5     6   ar
    17     6     7   ar
    18     7     8   ar
    19     8    11    1
    20    11    12    2
    21    12    13    1
    22    13    14    2
    23    14    15    1
    24    15    16    2
    25    16    17    1
    26    17    18    2
    27    18    19    1
    28     8     9   ar
    29     9    10   ar
    30    30    31   ar
    31    31    32   ar
    32    32    27   ar
    33    24    20   ar
    34    10     1   ar
    35     9     5   ar
    36    19    11    1
    37    18    14    1
@<TRIPOS>MOLECULE
*****
 32 37 0 0 0
SMALL
GASTEIGER

@<TRIPOS>ATOM
      1 C          62.6482   90.2743   12.4480 C.ar    1  UNL1        0.0198
      2 C          62.6901   89.6169   13.7955 C.ar    1  UNL1        0.0146
      3 C          63.8722   89.8249   14.6952 C.ar    1  UNL1        0.0786
      4 CL         63.9140   89.1674   16.0428 Cl      1  UNL1       -0.0806
      5 C          65.0124   90.6905   14.2473 C.ar    1  UNL1        0.1326
      6 N          66.3005   91.0768   14.9117 N.ar    1  UNL1       -0.1276
      7 N          67.0547   91.9731   13.9748 N.ar    1  UNL1       -0.0598
      8 N          66.2328   92.1406   12.7313 N.ar    1  UNL1       -0.2141
      9 C          64.9705   91.3479   12.8997 C.ar    1  UNL1        0.1043
     10 C          63.7884   91.1398   12.0000 C.ar    1  UNL1        0.0223
     11 C          66.6073   92.9575   11.5302 C.2     1  UNL1        0.0681
     12 C          67.4978   92.3733   10.4740 C.2     1  UNL1        0.0153
     13 C          67.8724   93.1901    9.2729 C.2     1  UNL1        0.0041
     14 C          67.3565   94.5911    9.1281 C.2     1  UNL1        0.0367
     15 C          67.5541   95.6284    8.0627 C.2     1  UNL1        0.1233
     16 N          66.7857   96.8536    8.4605 N.2     1  UNL1       -0.1467
     17 N          66.1132   96.5736    9.7719 N.2     1  UNL1       -0.1519
     18 C          66.4660   95.1753   10.1845 C.2     1  UNL1        0.0880
     19 C          66.0914   94.3585   11.3855 C.3     1  UNL1        0.0934
     20 N          61.2416   88.8897   10.6454 N.ar    1  UNL1       -0.2448
     21 N          59.9377   89.0946    9.9327 N.ar    1  UNL1       -0.1673
     22 C          59.3564   90.3977   10.3951 C.ar    1  UNL1        0.1217
     23 C          60.3010   90.9983   11.3936 C.ar    1  UNL1        0.0412
     24 C          61.4661   90.0662   11.5483 C.ar    1  UNL1        0.0799
     25 C          62.1597   87.7146   10.4836 C.3     1  UNL1        0.1727
     26 CL         61.5088   84.0214    5.7999 Cl      1  UNL1       -0.0806
     27 C          61.6714   84.9447    6.9709 C.ar    1  UNL1        0.0768
     28 C          62.9617   84.9657    7.7358 C.ar    1  UNL1        0.0142
     29 C          63.1244   85.8890    8.9067 C.ar    1  UNL1        0.0176
     30 C          61.9969   86.7913    9.3127 C.ar    1  UNL1        0.0837
     31 N          60.7068   86.7702    8.5478 N.ar    1  UNL1       -0.2453
     32 C          60.5441   85.8469    7.3768 C.ar    1  UNL1        0.1098
@<TRIPOS>BOND
     1    26    27    1
     2    27    28   ar
     3    28    29   ar
     4    29    30   ar
     5    30    25    1
     6    25    20    1
     7    20    21   ar
     8    21    22   ar
     9    22    23   ar
    10    23    24   ar
    11    24     1    1
    12     1     2   ar
    13     2     3   ar
    14     3     4    1
    15     3     5   ar
    16     5     6   ar
    17     6     7   ar
    18     7     8   ar
    19     8    11    1
    20    11    12    2
    21    12    13    1
    22    13    14    2
    23    14    15    1
    24    15    16    2
    25    16    17    1
    26    17    18    2
    27    18    19    1
    28     8     9   ar
    29     9    10   ar
    30    30    31   ar
    31    31    32   ar
    32    32    27   ar
    33    24    20   ar
    34    10     1   ar
    35     9     5   ar
    36    19    11    1
    37    18    14    1
@<TRIPOS>MOLECULE
*****
 32 37 0 0 0
SMALL
GASTEIGER

@<TRIPOS>ATOM
      1 C          62.2855   85.8772   11.1378 C.ar    1  UNL1        0.0198
      2 C          61.2083   85.6845   10.1119 C.ar    1  UNL1        0.0146
      3 C          60.5907   86.8751    9.4402 C.ar    1  UNL1        0.0786
      4 CL         59.5134   86.6824    8.4143 Cl      1  UNL1       -0.0806
      5 C          61.0503   88.2583    9.7945 C.ar    1  UNL1        0.1326
      6 N          60.6306   89.6120    9.3032 N.ar    1  UNL1       -0.1276
      7 N          61.4485   90.6412   10.0255 N.ar    1  UNL1       -0.0598
      8 N          62.3736   89.9237   10.9632 N.ar    1  UNL1       -0.2141
      9 C          62.1275   88.4509   10.8204 C.ar    1  UNL1        0.1043
     10 C          62.7451   87.2603   11.4920 C.ar    1  UNL1        0.0223
     11 C          63.3699   90.5661   11.8822 C.2     1  UNL1        0.0681
     12 C          63.4746   90.1141   13.3087 C.2     1  UNL1        0.0153
     13 C          64.4709   90.7565   14.2278 C.2     1  UNL1        0.0041
     14 C          65.3624   91.8509   13.7205 C.2     1  UNL1        0.0367
     15 C          66.4315   92.6649   14.3873 C.2     1  UNL1        0.1233
     16 N          66.9873   93.6200   13.3731 N.2     1  UNL1       -0.1467
     17 N          66.2619   93.3962   12.0793 N.2     1  UNL1       -0.1519
     18 C          65.2577   92.3029   12.2940 C.2     1  UNL1        0.0880
     19 C          64.2615   91.6605   11.3749 C.3     1  UNL1        0.0934
     20 N          63.8385   84.7222   12.9815 N.ar    1  UNL1       -0.2448
     21 N          64.2073   83.3090   13.3234 N.ar    1  UNL1       -0.1673
     22 C          63.4999   82.4000   12.3625 C.ar    1  UNL1        0.1217
     23 C          62.6939   83.2513   11.4269 C.ar    1  UNL1        0.0412
     24 C          62.9032   84.6866   11.8094 C.ar    1  UNL1        0.0799
     25 C          64.3205   85.9547   13.6878 C.3     1  UNL1        0.1727
     26 CL         62.4149   87.1654   19.2468 Cl      1  UNL1       -0.0806
     27 C          62.8913   86.8628   17.8570 C.ar    1  UNL1        0.0768
     28 C          63.0197   85.4393   17.4016 C.ar    1  UNL1        0.0142
     29 C          63.4962   85.1366   16.0118 C.ar    1  UNL1        0.0176
     30 C          63.8441   86.2574   15.0776 C.ar    1  UNL1        0.0837
     31 N          63.7156   87.6808   15.5330 N.ar    1  UNL1       -0.2453
     32 C          63.2392   87.9835   16.9228 C.ar    1  UNL1        0.1098
@<TRIPOS>BOND
     1    26    27    1
     2    27    28   ar
     3    28    29   ar
     4    29    30   ar
     5    30    25    1
     6    25    20    1
     7    20    21   ar
     8    21    22   ar
     9    22    23   ar
    10    23    24   ar
    11    24     1    1
    12     1     2   ar
    13     2     3   ar
    14     3     4    1
    15     3     5   ar
    16     5     6   ar
    17     6     7   ar
    18     7     8   ar
    19     8    11    1
    20    11    12    2
    21    12    13    1
    22    13    14    2
    23    14    15    1
    24    15    16    2
    25    16    17    1
    26    17    18    2
    27    18    19    1
    28     8     9   ar
    29     9    10   ar
    30    30    31   ar
    31    31    32   ar
    32    32    27   ar
    33    24    20   ar
    34    10     1   ar
    35     9     5   ar
    36    19    11    1
    37    18    14    1
@<TRIPOS>MOLECULE
*****
 32 37 0 0 0
SMALL
GASTEIGER

@<TRIPOS>ATOM
      1 C          62.9994   89.9900   11.8370 C.ar    1  UNL1        0.0198
      2 C          63.0999   89.0976   13.0384 C.ar    1  UNL1        0.0146
      3 C          64.1164   89.3851   14.1034 C.ar    1  UNL1        0.0786
      4 CL         64.2168   88.4926   15.3049 Cl      1  UNL1       -0.0806
      5 C          65.0322   90.5652   13.9670 C.ar    1  UNL1        0.1326
      6 N          66.1243   91.0952   14.8481 N.ar    1  UNL1       -0.1276
      7 N          66.6987   92.3153   14.1912 N.ar    1  UNL1       -0.0598
      8 N          65.9617   92.5393   12.9041 N.ar    1  UNL1       -0.2141
      9 C          64.9317   91.4576   12.7655 C.ar    1  UNL1        0.1043
     10 C          63.9153   91.1700   11.7005 C.ar    1  UNL1        0.0223
     11 C          66.2109   93.6499   11.9272 C.2     1  UNL1        0.0681
     12 C          66.0260   95.0769   12.3508 C.2     1  UNL1        0.0153
     13 C          66.2752   96.1876   11.3739 C.2     1  UNL1        0.0041
     14 C          66.7092   95.8712    9.9734 C.2     1  UNL1        0.0367
     15 C          67.0273   96.7483    8.7988 C.2     1  UNL1        0.1233
     16 N          67.4086   95.8634    7.6493 N.2     1  UNL1       -0.1467
     17 N          67.3263   94.4393    8.1134 N.2     1  UNL1       -0.1519
     18 C          66.8941   94.4441    9.5498 C.2     1  UNL1        0.0880
     19 C          66.6449   93.3335   10.5266 C.3     1  UNL1        0.0934
     20 N          61.1387   88.4668   10.6695 N.ar    1  UNL1       -0.2448
     21 N          60.2664   88.6008    9.4565 N.ar    1  UNL1       -0.1673
     22 C          60.5716   89.9192    8.8094 C.ar    1  UNL1        0.1217
     23 C          61.6325   90.6000    9.6224 C.ar    1  UNL1        0.0412
     24 C          61.9830   89.7024   10.7719 C.ar    1  UNL1        0.0799
     25 C          61.1626   87.3018   11.6140 C.3     1  UNL1        0.1727
     26 CL         64.3964   82.4263   10.2830 Cl      1  UNL1       -0.0806
     27 C          63.5879   83.6452   10.6159 C.ar    1  UNL1        0.0768
     28 C          63.2030   84.6086    9.5324 C.ar    1  UNL1        0.0142
     29 C          62.3945   85.8275    9.8651 C.ar    1  UNL1        0.0176
     30 C          61.9710   86.0829   11.2813 C.ar    1  UNL1        0.0837
     31 N          62.3560   85.1196   12.3646 N.ar    1  UNL1       -0.2453
     32 C          63.1645   83.9007   12.0319 C.ar    1  UNL1        0.1098
@<TRIPOS>BOND
     1    26    27    1
     2    27    28   ar
     3    28    29   ar
     4    29    30   ar
     5    30    25    1
     6    25    20    1
     7    20    21   ar
     8    21    22   ar
     9    22    23   ar
    10    23    24   ar
    11    24     1    1
    12     1     2   ar
    13     2     3   ar
    14     3     4    1
    15     3     5   ar
    16     5     6   ar
    17     6     7   ar
    18     7     8   ar
    19     8    11    1
    20    11    12    2
    21    12    13    1
    22    13    14    2
    23    14    15    1
    24    15    16    2
    25    16    17    1
    26    17    18    2
    27    18    19    1
    28     8     9   ar
    29     9    10   ar
    30    30    31   ar
    31    31    32   ar
    32    32    27   ar
    33    24    20   ar
    34    10     1   ar
    35     9     5   ar
    36    19    11    1
    37    18    14    1
@<TRIPOS>MOLECULE
*****
 32 37 0 0 0
SMALL
GASTEIGER

@<TRIPOS>ATOM
      1 C          62.0553   85.5153   10.6477 C.ar    1  UNL1        0.0198
      2 C          62.4625   84.1216   10.2716 C.ar    1  UNL1        0.0146
      3 C          63.3459   83.3257   11.1862 C.ar    1  UNL1        0.0786
      4 CL         63.7532   81.9319   10.8101 Cl      1  UNL1       -0.0806
      5 C          63.8221   83.9238   12.4768 C.ar    1  UNL1        0.1326
      6 N          64.6944   83.3845   13.5713 N.ar    1  UNL1       -0.1276
      7 N          64.8263   84.4450   14.6239 N.ar    1  UNL1       -0.0598
      8 N          64.0355   85.6398   14.1798 N.ar    1  UNL1       -0.2141
      9 C          63.4148   85.3176   12.8528 C.ar    1  UNL1        0.1043
     10 C          62.5314   86.1134   11.9383 C.ar    1  UNL1        0.0223
     11 C          63.8908   86.9301   14.9309 C.2     1  UNL1        0.0681
     12 C          63.1303   86.9643   16.2234 C.2     1  UNL1        0.0153
     13 C          62.9855   88.2546   16.9745 C.2     1  UNL1        0.0041
     14 C          63.6012   89.5106   16.4332 C.2     1  UNL1        0.0367
     15 C          63.6249   90.9195   16.9478 C.2     1  UNL1        0.1233
     16 N          64.3999   91.7559   15.9733 N.2     1  UNL1       -0.1467
     17 N          64.8554   90.8641   14.8564 N.2     1  UNL1       -0.1519
     18 C          64.3617   89.4764   15.1407 C.2     1  UNL1        0.0880
     19 C          64.5065   88.1862   14.3895 C.3     1  UNL1        0.0934
     20 N          60.6555   87.6957    9.9907 N.ar    1  UNL1       -0.2448
     21 N          59.8143   88.1024    8.8172 N.ar    1  UNL1       -0.1673
     22 C          59.8108   86.9691    7.8344 C.ar    1  UNL1        0.1217
     23 C          60.6499   85.8621    8.4005 C.ar    1  UNL1        0.0412
     24 C          61.1719   86.3112    9.7331 C.ar    1  UNL1        0.0799
     25 C          60.9318   88.5276   11.2079 C.3     1  UNL1        0.1727
     26 CL         65.0072   92.9249   10.9746 Cl      1  UNL1       -0.0806
     27 C          63.9883   91.8256   11.0330 C.ar    1  UNL1        0.0768
     28 C          63.3947   91.2851    9.7658 C.ar    1  UNL1        0.0142
     29 C          62.3759   90.1858    9.8241 C.ar    1  UNL1        0.0176
     30 C          61.9506   89.6269   11.1496 C.ar    1  UNL1        0.0837
     31 N          62.5442   90.1674   12.4167 N.ar    1  UNL1       -0.2453
     32 C          63.5631   91.2667   12.3584 C.ar    1  UNL1        0.1098
@<TRIPOS>BOND
     1    26    27    1
     2    27    28   ar
     3    28    29   ar
     4    29    30   ar
     5    30    25    1
     6    25    20    1
     7    20    21   ar
     8    21    22   ar
     9    22    23   ar
    10    23    24   ar
    11    24     1    1
    12     1     2   ar
    13     2     3   ar
    14     3     4    1
    15     3     5   ar
    16     5     6   ar
    17     6     7   ar
    18     7     8   ar
    19     8    11    1
    20    11    12    2
    21    12    13    1
    22    13    14    2
    23    14    15    1
    24    15    16    2
    25    16    17    1
    26    17    18    2
    27    18    19    1
    28     8     9   ar
    29     9    10   ar
    30    30    31   ar
    31    31    32   ar
    32    32    27   ar
    33    24    20   ar
    34    10     1   ar
    35     9     5   ar
    36    19    11    1
    37    18    14    1
@<TRIPOS>MOLECULE
*****
 32 37 0 0 0
SMALL
GASTEIGER

@<TRIPOS>ATOM
      1 C          63.2975   89.1074   13.0818 C.ar    1  UNL1        0.0198
      2 C          63.3878   89.8003   14.4090 C.ar    1  UNL1        0.0146
      3 C          63.5239   88.9956   15.6676 C.ar    1  UNL1        0.0786
      4 CL         63.6142   89.6886   16.9948 Cl      1  UNL1       -0.0806
      5 C          63.5698   87.4979   15.5988 C.ar    1  UNL1        0.1326
      6 N          63.6977   86.4478   16.6622 N.ar    1  UNL1       -0.1276
      7 N          63.6865   85.1058   15.9922 N.ar    1  UNL1       -0.0598
      8 N          63.5516   85.3265   14.5146 N.ar    1  UNL1       -0.2141
      9 C          63.4795   86.8049   14.2715 C.ar    1  UNL1        0.1043
     10 C          63.3434   87.6097   13.0130 C.ar    1  UNL1        0.0223
     11 C          63.4983   84.2566   13.4646 C.2     1  UNL1        0.0681
     12 C          63.8757   84.5762   12.0485 C.2     1  UNL1        0.0153
     13 C          63.8224   83.5063   10.9984 C.2     1  UNL1        0.0041
     14 C          63.3915   82.1170   11.3645 C.2     1  UNL1        0.0367
     15 C          63.2423   80.8653   10.5513 C.2     1  UNL1        0.1233
     16 N          62.7726   79.7723   11.4649 N.2     1  UNL1       -0.1467
     17 N          62.6315   80.3484   12.8427 N.2     1  UNL1       -0.1519
     18 C          63.0141   81.7975   12.7807 C.2     1  UNL1        0.0880
     19 C          63.0674   82.8673   13.8307 C.3     1  UNL1        0.0934
     20 N          62.1781   89.6614   10.7185 N.ar    1  UNL1       -0.2448
     21 N          62.3936   90.7032    9.6609 N.ar    1  UNL1       -0.1673
     22 C          63.5100   91.5977   10.1122 C.ar    1  UNL1        0.1217
     23 C          63.9844   91.1088   11.4485 C.ar    1  UNL1        0.0412
     24 C          63.1613   89.9121   11.8232 C.ar    1  UNL1        0.0799
     25 C          61.1585   88.5620   10.6782 C.3     1  UNL1        0.1727
     26 CL         61.3871   84.4154    6.3478 Cl      1  UNL1       -0.0806
     27 C          61.3299   85.4521    7.4304 C.ar    1  UNL1        0.0768
     28 C          62.5272   85.6941    8.3010 C.ar    1  UNL1        0.0142
     29 C          62.4701   86.7307    9.3837 C.ar    1  UNL1        0.0176
     30 C          61.2156   87.5254    9.5956 C.ar    1  UNL1        0.0837
     31 N          60.0183   87.2834    8.7250 N.ar    1  UNL1       -0.2453
     32 C          60.0755   86.2467    7.6424 C.ar    1  UNL1        0.1098
@<TRIPOS>BOND
     1    26    27    1
     2    27    28   ar
     3    28    29   ar
     4    29    30   ar
     5    30    25    1
     6    25    20    1
     7    20    21   ar
     8    21    22   ar
     9    22    23   ar
    10    23    24   ar
    11    24     1    1
    12     1     2   ar
    13     2     3   ar
    14     3     4    1
    15     3     5   ar
    16     5     6   ar
    17     6     7   ar
    18     7     8   ar
    19     8    11    1
    20    11    12    2
    21    12    13    1
    22    13    14    2
    23    14    15    1
    24    15    16    2
    25    16    17    1
    26    17    18    2
    27    18    19    1
    28     8     9   ar
    29     9    10   ar
    30    30    31   ar
    31    31    32   ar
    32    32    27   ar
    33    24    20   ar
    34    10     1   ar
    35     9     5   ar
    36    19    11    1
    37    18    14    1
