@<TRIPOS>MOLECULE
*****
 16 16 0 0 0
SMALL
GASTEIGER

@<TRIPOS>ATOM
      1 C          61.8486   86.1990    9.6029 C.ar    1  UNL1       -0.0227
      2 C          62.7624   85.5034    8.6381 C.ar    1  UNL1       -0.0030
      3 C          63.5801   84.3306    9.0920 C.ar    1  UNL1        0.0143
      4 C          63.4840   83.8535   10.5108 C.ar    1  UNL1        0.0495
      5 C          62.5702   84.5491   11.4757 C.ar    1  UNL1        0.0143
      6 C          61.7525   85.7218   11.0217 C.ar    1  UNL1       -0.0030
      7 C          61.9413   88.2973    9.9002 C.3     1  UNL1        0.0044
      8 C          61.0309   87.3717    9.1489 C.3     1  UNL1        0.0189
      9 C          60.1204   86.4461    8.3977 C.3     1  UNL1        0.0044
     10 C          60.2132   88.5444    8.6950 C.3     1  UNL1        0.0044
     11 N          64.3017   82.6808   10.9648 N.pl3   1  UNL1       -0.2930
     12 H          64.8639   82.1936   10.3200 H       1  UNL1        0.1538
     13 C          64.2629   82.2505   12.4012 C.2     1  UNL1        0.2056
     14 N          63.3817   81.1108   12.8192 N.2     1  UNL1       -0.0679
     15 O          63.3430   80.6805   14.2556 O.2     1  UNL1       -0.4077
     16 H          62.7925   79.9686   14.5168 H       1  UNL1        0.3278
@<TRIPOS>BOND
     1     7     8    1
     2     8     9    1
     3     8    10    1
     4     8     1    1
     5     1     2   ar
     6     2     3   ar
     7     3     4   ar
     8     4    11    1
     9    11    13    1
    10    13    14    2
    11    14    15    1
    12     4     5   ar
    13     5     6   ar
    14     6     1   ar
    15    11    12    1
    16    15    16    1
@<TRIPOS>MOLECULE
*****
 16 16 0 0 0
SMALL
GASTEIGER

@<TRIPOS>ATOM
      1 C          63.2091   83.6265   11.6463 C.ar    1  UNL1       -0.0227
      2 C          63.5873   83.6245   10.1948 C.ar    1  UNL1       -0.0030
      3 C          63.1781   84.7658    9.3115 C.ar    1  UNL1        0.0143
      4 C          62.3907   85.9090    9.8798 C.ar    1  UNL1        0.0495
      5 C          62.0125   85.9110   11.3313 C.ar    1  UNL1        0.0143
      6 C          62.4217   84.7697   12.2145 C.ar    1  UNL1       -0.0030
      7 C          64.2797   83.4495   13.4691 C.3     1  UNL1        0.0044
      8 C          63.6183   82.4852   12.5295 C.3     1  UNL1        0.0189
      9 C          62.9570   81.5210   11.5899 C.3     1  UNL1        0.0044
     10 C          64.0276   81.3440   13.4127 C.3     1  UNL1        0.0044
     11 N          61.9814   87.0502    8.9966 N.pl3   1  UNL1       -0.2930
     12 H          62.6674   87.6113    8.5678 H       1  UNL1        0.1538
     13 C          60.5271   87.3366    8.7668 C.2     1  UNL1        0.2056
     14 N          59.6788   86.3539    8.0154 N.2     1  UNL1       -0.0679
     15 O          58.2244   86.6404    7.7856 O.2     1  UNL1       -0.4077
     16 H          57.6944   86.0265    7.3162 H       1  UNL1        0.3278
@<TRIPOS>BOND
     1     7     8    1
     2     8     9    1
     3     8    10    1
     4     8     1    1
     5     1     2   ar
     6     2     3   ar
     7     3     4   ar
     8     4    11    1
     9    11    13    1
    10    13    14    2
    11    14    15    1
    12     4     5   ar
    13     5     6   ar
    14     6     1   ar
    15    11    12    1
    16    15    16    1
@<TRIPOS>MOLECULE
*****
 16 16 0 0 0
SMALL
GASTEIGER

@<TRIPOS>ATOM
      1 C          61.1875   86.6406    9.1572 C.ar    1  UNL1       -0.0227
      2 C          60.2921   86.0318    8.1192 C.ar    1  UNL1       -0.0030
      3 C          59.3873   86.9063    7.3028 C.ar    1  UNL1        0.0143
      4 C          59.3778   88.3898    7.5245 C.ar    1  UNL1        0.0495
      5 C          60.2732   88.9987    8.5625 C.ar    1  UNL1        0.0143
      6 C          61.1780   88.1241    9.3788 C.ar    1  UNL1       -0.0030
      7 C          61.3409   86.1471   11.2146 C.3     1  UNL1        0.0044
      8 C          62.0923   85.7661    9.9735 C.3     1  UNL1        0.0189
      9 C          62.8437   85.3851    8.7324 C.3     1  UNL1        0.0044
     10 C          62.9972   84.8915   10.7898 C.3     1  UNL1        0.0044
     11 N          58.4729   89.2644    6.7082 N.pl3   1  UNL1       -0.2930
     12 H          57.4974   89.1384    6.7501 H       1  UNL1        0.1538
     13 C          59.0544   90.3308    5.8281 C.2     1  UNL1        0.2056
     14 N          58.1623   91.3764    5.2275 N.2     1  UNL1       -0.0679
     15 O          58.7438   92.4429    4.3473 O.2     1  UNL1       -0.4077
     16 H          58.1865   93.0961    3.9721 H       1  UNL1        0.3278
@<TRIPOS>BOND
     1     7     8    1
     2     8     9    1
     3     8    10    1
     4     8     1    1
     5     1     2   ar
     6     2     3   ar
     7     3     4   ar
     8     4    11    1
     9    11    13    1
    10    13    14    2
    11    14    15    1
    12     4     5   ar
    13     5     6   ar
    14     6     1   ar
    15    11    12    1
    16    15    16    1
@<TRIPOS>MOLECULE
*****
 16 16 0 0 0
SMALL
GASTEIGER

@<TRIPOS>ATOM
      1 C          61.3677   86.4875    9.4179 C.ar    1  UNL1       -0.0227
      2 C          61.2180   86.3177   10.9007 C.ar    1  UNL1       -0.0030
      3 C          62.0752   85.3280   11.6326 C.ar    1  UNL1        0.0143
      4 C          63.0821   84.5081   10.8817 C.ar    1  UNL1        0.0495
      5 C          63.2318   84.6779    9.3989 C.ar    1  UNL1        0.0143
      6 C          62.3746   85.6676    8.6670 C.ar    1  UNL1       -0.0030
      7 C          59.8886   86.3593    7.9027 C.3     1  UNL1        0.0044
      8 C          60.5105   87.4772    8.6860 C.3     1  UNL1        0.0189
      9 C          61.1325   88.5951    9.4692 C.3     1  UNL1        0.0044
     10 C          59.6533   88.4669    7.9540 C.3     1  UNL1        0.0044
     11 N          63.9393   83.5184   11.6136 N.pl3   1  UNL1       -0.2930
     12 H          64.5015   82.8866   11.1096 H       1  UNL1        0.1538
     13 C          63.9398   83.4912   13.1133 C.2     1  UNL1        0.2056
     14 N          63.0064   82.5747   13.8472 N.2     1  UNL1       -0.0679
     15 O          63.0070   82.5475   15.3470 O.2     1  UNL1       -0.4077
     16 H          62.4239   81.9750   15.8055 H       1  UNL1        0.3278
@<TRIPOS>BOND
     1     7     8    1
     2     8     9    1
     3     8    10    1
     4     8     1    1
     5     1     2   ar
     6     2     3   ar
     7     3     4   ar
     8     4    11    1
     9    11    13    1
    10    13    14    2
    11    14    15    1
    12     4     5   ar
    13     5     6   ar
    14     6     1   ar
    15    11    12    1
    16    15    16    1
@<TRIPOS>MOLECULE
*****
 16 16 0 0 0
SMALL
GASTEIGER

@<TRIPOS>ATOM
      1 C          66.1253   92.6249   11.0859 C.ar    1  UNL1       -0.0227
      2 C          64.8225   92.1003   10.5592 C.ar    1  UNL1       -0.0030
      3 C          63.8319   91.4753   11.4962 C.ar    1  UNL1        0.0143
      4 C          64.1440   91.3750   12.9599 C.ar    1  UNL1        0.0495
      5 C          65.4468   91.8996   13.4866 C.ar    1  UNL1        0.0143
      6 C          66.4374   92.5246   12.5496 C.ar    1  UNL1       -0.0030
      7 C          66.3325   94.5288   10.1736 C.3     1  UNL1        0.0044
      8 C          67.1159   93.2499   10.1488 C.3     1  UNL1        0.0189
      9 C          67.8994   91.9710   10.1241 C.3     1  UNL1        0.0044
     10 C          68.1066   93.8749    9.2118 C.3     1  UNL1        0.0044
     11 N          63.1534   90.7500   13.8970 N.pl3   1  UNL1       -0.2930
     12 H          62.1985   90.9799   13.8288 H       1  UNL1        0.1538
     13 C          63.6175   89.7748   14.9378 C.2     1  UNL1        0.2056
     14 N          62.7440   89.4640   16.1170 N.2     1  UNL1       -0.0679
     15 O          63.2083   88.4887   17.1579 O.2     1  UNL1       -0.4077
     16 H          62.6627   88.2946   17.8945 H       1  UNL1        0.3278
@<TRIPOS>BOND
     1     7     8    1
     2     8     9    1
     3     8    10    1
     4     8     1    1
     5     1     2   ar
     6     2     3   ar
     7     3     4   ar
     8     4    11    1
     9    11    13    1
    10    13    14    2
    11    14    15    1
    12     4     5   ar
    13     5     6   ar
    14     6     1   ar
    15    11    12    1
    16    15    16    1
@<TRIPOS>MOLECULE
*****
 16 16 0 0 0
SMALL
GASTEIGER

@<TRIPOS>ATOM
      1 C          62.3359   90.0782   10.9358 C.ar    1  UNL1       -0.0227
      2 C          63.1216   91.0755   10.1372 C.ar    1  UNL1       -0.0030
      3 C          64.2086   91.8734   10.7944 C.ar    1  UNL1        0.0143
      4 C          64.5098   91.6739   12.2502 C.ar    1  UNL1        0.0495
      5 C          63.7240   90.6765   13.0488 C.ar    1  UNL1        0.0143
      6 C          62.6371   89.8787   12.3916 C.ar    1  UNL1       -0.0030
      7 C          60.2602   90.3609   10.6019 C.3     1  UNL1        0.0044
      8 C          61.2489   89.2803   10.2786 C.3     1  UNL1        0.0189
      9 C          62.2377   88.1996    9.9553 C.3     1  UNL1        0.0044
     10 C          60.1620   88.4824    9.6213 C.3     1  UNL1        0.0044
     11 N          65.5967   92.4718   12.9074 N.pl3   1  UNL1       -0.2930
     12 H          65.3740   93.1138   13.6198 H       1  UNL1        0.1538
     13 C          67.0230   92.2915   12.4793 C.2     1  UNL1        0.2056
     14 N          68.0799   91.9889   13.4998 N.2     1  UNL1       -0.0679
     15 O          69.5061   91.8086   13.0716 O.2     1  UNL1       -0.4077
     16 H          70.1664   91.6196   13.7090 H       1  UNL1        0.3278
@<TRIPOS>BOND
     1     7     8    1
     2     8     9    1
     3     8    10    1
     4     8     1    1
     5     1     2   ar
     6     2     3   ar
     7     3     4   ar
     8     4    11    1
     9    11    13    1
    10    13    14    2
    11    14    15    1
    12     4     5   ar
    13     5     6   ar
    14     6     1   ar
    15    11    12    1
    16    15    16    1
@<TRIPOS>MOLECULE
*****
 16 16 0 0 0
SMALL
GASTEIGER

@<TRIPOS>ATOM
      1 C          63.4163   82.8484   12.1540 C.ar    1  UNL1       -0.0227
      2 C          64.2008   82.7946   13.4313 C.ar    1  UNL1       -0.0030
      3 C          64.3939   84.0392   14.2460 C.ar    1  UNL1        0.0143
      4 C          63.8023   85.3376   13.7833 C.ar    1  UNL1        0.0495
      5 C          63.0178   85.3915   12.5061 C.ar    1  UNL1        0.0143
      6 C          62.8248   84.1468   11.6914 C.ar    1  UNL1       -0.0030
      7 C          63.9252   82.2518   10.1830 C.3     1  UNL1        0.0044
      8 C          63.2233   81.6038   11.3394 C.3     1  UNL1        0.0189
      9 C          62.5214   80.9557   12.4958 C.3     1  UNL1        0.0044
     10 C          63.0302   80.3591   10.5247 C.3     1  UNL1        0.0044
     11 N          63.9953   86.5823   14.5980 N.pl3   1  UNL1       -0.2930
     12 H          64.2740   87.4189   14.1602 H       1  UNL1        0.1538
     13 C          63.7638   86.5522   16.0797 C.2     1  UNL1        0.2056
     14 N          62.4181   86.1698   16.6209 N.2     1  UNL1       -0.0679
     15 O          62.1866   86.1398   18.1027 O.2     1  UNL1       -0.4077
     16 H          61.3460   85.9008   18.4408 H       1  UNL1        0.3278
@<TRIPOS>BOND
     1     7     8    1
     2     8     9    1
     3     8    10    1
     4     8     1    1
     5     1     2   ar
     6     2     3   ar
     7     3     4   ar
     8     4    11    1
     9    11    13    1
    10    13    14    2
    11    14    15    1
    12     4     5   ar
    13     5     6   ar
    14     6     1   ar
    15    11    12    1
    16    15    16    1
@<TRIPOS>MOLECULE
*****
 16 16 0 0 0
SMALL
GASTEIGER

@<TRIPOS>ATOM
      1 C          64.8415   90.8903   14.2557 C.ar    1  UNL1       -0.0227
      2 C          66.2396   91.3302   14.5747 C.ar    1  UNL1       -0.0030
      3 C          67.0167   92.1396   13.5792 C.ar    1  UNL1        0.0143
      4 C          66.3957   92.5092   12.2648 C.ar    1  UNL1        0.0495
      5 C          64.9975   92.0694   11.9459 C.ar    1  UNL1        0.0143
      6 C          64.2205   91.2599   12.9413 C.ar    1  UNL1       -0.0030
      7 C          63.9672   91.2785   16.1491 C.3     1  UNL1        0.0044
      8 C          64.0644   90.0809   15.2512 C.3     1  UNL1        0.0189
      9 C          64.1615   88.8833   14.3532 C.3     1  UNL1        0.0044
     10 C          63.2873   89.2715   16.2466 C.3     1  UNL1        0.0044
     11 N          67.1728   93.3187   11.2694 N.pl3   1  UNL1       -0.2930
     12 H          68.1412   93.4488   11.3894 H       1  UNL1        0.1538
     13 C          66.4743   93.9299   10.0910 C.2     1  UNL1        0.2056
     14 N          67.2674   94.6418    9.0355 N.2     1  UNL1       -0.0679
     15 O          66.5689   95.2530    7.8571 O.2     1  UNL1       -0.4077
     16 H          67.0644   95.6977    7.1977 H       1  UNL1        0.3278
@<TRIPOS>BOND
     1     7     8    1
     2     8     9    1
     3     8    10    1
     4     8     1    1
     5     1     2   ar
     6     2     3   ar
     7     3     4   ar
     8     4    11    1
     9    11    13    1
    10    13    14    2
    11    14    15    1
    12     4     5   ar
    13     5     6   ar
    14     6     1   ar
    15    11    12    1
    16    15    16    1
@<TRIPOS>MOLECULE
*****
 16 16 0 0 0
SMALL
GASTEIGER

@<TRIPOS>ATOM
      1 C          63.6882   90.4150   12.3390 C.ar    1  UNL1       -0.0227
      2 C          63.6450   91.3238   11.1465 C.ar    1  UNL1       -0.0030
      3 C          62.6928   91.0415   10.0224 C.ar    1  UNL1        0.0143
      4 C          61.7838   89.8503   10.0909 C.ar    1  UNL1        0.0495
      5 C          61.8270   88.9415   11.2834 C.ar    1  UNL1        0.0143
      6 C          62.7792   89.2238   12.4074 C.ar    1  UNL1       -0.0030
      7 C          64.2231   89.4236   14.1365 C.3     1  UNL1        0.0044
      8 C          64.6404   90.6974   13.4631 C.3     1  UNL1        0.0189
      9 C          65.0577   91.9711   12.7897 C.3     1  UNL1        0.0044
     10 C          65.5926   90.9797   14.5872 C.3     1  UNL1        0.0044
     11 N          60.8315   89.5680    8.9668 N.pl3   1  UNL1       -0.2930
     12 H          60.6694   90.2504    8.2759 H       1  UNL1        0.1538
     13 C          60.1264   88.2460    8.8953 C.2     1  UNL1        0.2056
     14 N          59.0952   88.0024    7.8336 N.2     1  UNL1       -0.0679
     15 O          58.3901   86.6804    7.7622 O.2     1  UNL1       -0.4077
     16 H          57.7459   86.5282    7.0990 H       1  UNL1        0.3278
@<TRIPOS>BOND
     1     7     8    1
     2     8     9    1
     3     8    10    1
     4     8     1    1
     5     1     2   ar
     6     2     3   ar
     7     3     4   ar
     8     4    11    1
     9    11    13    1
    10    13    14    2
    11    14    15    1
    12     4     5   ar
    13     5     6   ar
    14     6     1   ar
    15    11    12    1
    16    15    16    1
