@<TRIPOS>MOLECULE
*****
 30 34 0 0 0
SMALL
GASTEIGER

@<TRIPOS>ATOM
      1 O          67.2692   94.5995   15.0272 O.2     1  UNL1       -0.2911
      2 C          66.5163   93.8053   14.0013 C.2     1  UNL1        0.1795
      3 C          66.1056   92.3937   14.2990 C.3     1  UNL1        0.1092
      4 C          65.3527   91.5994   13.2731 C.3     1  UNL1        0.1436
      5 C          64.5999   90.8052   12.2472 C.3     1  UNL1        0.0620
      6 C          64.1892   89.3936   12.5449 C.3     1  UNL1        0.0985
      7 N          64.5313   88.7762   13.8684 N.am    1  UNL1       -0.2640
      8 C          64.1205   87.3645   14.1661 C.2     1  UNL1        0.3039
      9 O          64.4626   86.7471   15.4897 O.2     1  UNL1       -0.2526
     10 N          63.3677   86.5703   13.1402 N.am    1  UNL1       -0.2901
     11 C          65.2841   89.5704   14.8943 C.3     1  UNL1        0.0985
     12 C          65.6948   90.9820   14.5966 C.3     1  UNL1        0.0620
     13 O          65.0106   92.2168   11.9495 O.3     1  UNL1       -0.4819
     14 C          65.4214   93.6285   11.6519 C.ar    1  UNL1        0.1409
     15 C          65.0793   94.2459   10.3283 C.ar    1  UNL1        0.0370
     16 C          65.4900   95.6575   10.0306 C.ar    1  UNL1        0.0031
     17 C          66.2429   96.4517   11.0565 C.ar    1  UNL1        0.0003
     18 C          66.5850   95.8343   12.3801 C.ar    1  UNL1        0.0059
     19 C          66.1742   94.4227   12.6777 C.ar    1  UNL1        0.0687
     20 H          63.1432   86.9756   12.2716 H       1  UNL1        0.1509
     21 C          62.9569   85.1587   13.4379 C.3     1  UNL1        0.0777
     22 C          62.2912   84.8303   14.7413 C.3     1  UNL1        0.0246
     23 C          61.8804   83.4187   15.0390 C.3     1  UNL1        0.0277
     24 C          62.1354   82.3355   14.0333 C.ar    1  UNL1       -0.0260
     25 C          61.7246   80.9238   14.3309 C.ar    1  UNL1       -0.0046
     26 C          61.9796   79.8406   13.3252 C.ar    1  UNL1       -0.0003
     27 C          62.6453   80.1690   12.0217 C.ar    1  UNL1       -0.0003
     28 C          63.0560   81.5806   11.7240 C.ar    1  UNL1       -0.0045
     29 C          62.8011   82.6639   12.7298 C.ar    1  UNL1       -0.0245
     30 C          63.2119   84.0755   12.4321 C.3     1  UNL1        0.0456
@<TRIPOS>BOND
     1     1     2    2
     2     2     3    1
     3     3     4    1
     4     4     5    1
     5     5     6    1
     6     6     7    1
     7     7     8   am
     8     8     9    2
     9     8    10   am
    10    10    21    1
    11    21    22    1
    12    22    23    1
    13    23    24    1
    14    24    25   ar
    15    25    26   ar
    16    26    27   ar
    17    27    28   ar
    18    28    29   ar
    19    29    30    1
    20     7    11    1
    21    11    12    1
    22     4    13    1
    23    13    14    1
    24    14    15   ar
    25    15    16   ar
    26    16    17   ar
    27    17    18   ar
    28    18    19   ar
    29    19     2    1
    30    12     4    1
    31    19    14   ar
    32    30    21    1
    33    29    24   ar
    34    10    20    1
@<TRIPOS>MOLECULE
*****
 30 34 0 0 0
SMALL
GASTEIGER

@<TRIPOS>ATOM
      1 O          64.2289   85.3074   15.1854 O.2     1  UNL1       -0.2911
      2 C          63.5512   84.9208   13.9042 C.2     1  UNL1        0.1795
      3 C          63.0970   85.9818   12.9462 C.3     1  UNL1        0.1092
      4 C          62.4192   85.5951   11.6650 C.3     1  UNL1        0.1436
      5 C          61.7416   85.2085   10.3839 C.3     1  UNL1        0.0620
      6 C          61.2874   86.2695    9.4259 C.3     1  UNL1        0.0985
      7 N          61.5108   87.7172    9.7489 N.am    1  UNL1       -0.2640
      8 C          61.0566   88.7782    8.7908 C.2     1  UNL1        0.3039
      9 O          61.2800   90.2259    9.1138 O.2     1  UNL1       -0.2526
     10 N          60.3789   88.3916    7.5097 N.am    1  UNL1       -0.2901
     11 C          62.1885   88.1038   11.0300 C.3     1  UNL1        0.0985
     12 C          62.6427   87.0428   11.9880 C.3     1  UNL1        0.0620
     13 O          62.1958   84.1475   11.3420 O.3     1  UNL1       -0.4819
     14 C          62.6500   83.0865   12.3001 C.ar    1  UNL1        0.1409
     15 C          62.4266   81.6388   11.9771 C.ar    1  UNL1        0.0370
     16 C          62.8808   80.5778   12.9351 C.ar    1  UNL1        0.0031
     17 C          63.5585   80.9644   14.2163 C.ar    1  UNL1        0.0003
     18 C          63.7820   82.4121   14.5393 C.ar    1  UNL1        0.0059
     19 C          63.3277   83.4731   13.5812 C.ar    1  UNL1        0.0687
     20 H          60.2322   87.4414    7.2977 H       1  UNL1        0.1509
     21 C          59.9246   89.4526    6.5516 C.3     1  UNL1        0.0777
     22 C          58.4819   89.8614    6.5142 C.3     1  UNL1        0.0246
     23 C          58.0276   90.9224    5.5561 C.3     1  UNL1        0.0277
     24 C          59.0161   91.5745    4.6355 C.ar    1  UNL1       -0.0260
     25 C          58.5618   92.6356    3.6773 C.ar    1  UNL1       -0.0046
     26 C          59.5503   93.2877    2.7567 C.ar    1  UNL1       -0.0003
     27 C          60.9930   92.8789    2.7941 C.ar    1  UNL1       -0.0003
     28 C          61.4473   91.8179    3.7522 C.ar    1  UNL1       -0.0045
     29 C          60.4588   91.1657    4.6729 C.ar    1  UNL1       -0.0245
     30 C          60.9131   90.1047    5.6309 C.3     1  UNL1        0.0456
@<TRIPOS>BOND
     1     1     2    2
     2     2     3    1
     3     3     4    1
     4     4     5    1
     5     5     6    1
     6     6     7    1
     7     7     8   am
     8     8     9    2
     9     8    10   am
    10    10    21    1
    11    21    22    1
    12    22    23    1
    13    23    24    1
    14    24    25   ar
    15    25    26   ar
    16    26    27   ar
    17    27    28   ar
    18    28    29   ar
    19    29    30    1
    20     7    11    1
    21    11    12    1
    22     4    13    1
    23    13    14    1
    24    14    15   ar
    25    15    16   ar
    26    16    17   ar
    27    17    18   ar
    28    18    19   ar
    29    19     2    1
    30    12     4    1
    31    19    14   ar
    32    30    21    1
    33    29    24   ar
    34    10    20    1
@<TRIPOS>MOLECULE
*****
 30 34 0 0 0
SMALL
GASTEIGER

@<TRIPOS>ATOM
      1 O          62.3300   82.6281   12.5726 O.2     1  UNL1       -0.2911
      2 C          62.4960   84.1113   12.4219 C.2     1  UNL1        0.1795
      3 C          61.9332   84.8106   11.2202 C.3     1  UNL1        0.1092
      4 C          62.0991   86.2938   11.0694 C.3     1  UNL1        0.1436
      5 C          62.2651   87.7770   10.9188 C.3     1  UNL1        0.0620
      6 C          61.7023   88.4763    9.7171 C.3     1  UNL1        0.0985
      7 N          60.9735   87.6926    8.6661 N.am    1  UNL1       -0.2640
      8 C          60.4106   88.3920    7.4644 C.2     1  UNL1        0.3039
      9 O          59.6819   87.6082    6.4134 O.2     1  UNL1       -0.2526
     10 N          60.5766   89.8751    7.3137 N.am    1  UNL1       -0.2901
     11 C          60.8075   86.2094    8.8168 C.3     1  UNL1        0.0985
     12 C          61.3703   85.5101   10.0185 C.3     1  UNL1        0.0620
     13 O          62.8279   87.0776   12.1204 O.3     1  UNL1       -0.4819
     14 C          63.3908   86.3782   13.3222 C.ar    1  UNL1        0.1409
     15 C          64.1196   87.1619   14.3731 C.ar    1  UNL1        0.0370
     16 C          64.6824   86.4626   15.5748 C.ar    1  UNL1        0.0031
     17 C          64.5164   84.9794   15.7256 C.ar    1  UNL1        0.0003
     18 C          63.7876   84.1956   14.6746 C.ar    1  UNL1        0.0059
     19 C          63.2248   84.8950   13.4729 C.ar    1  UNL1        0.0687
     20 H          61.0550   90.3895    8.0035 H       1  UNL1        0.1509
     21 C          60.0138   90.5746    6.1119 C.3     1  UNL1        0.0777
     22 C          58.5285   90.7023    5.9458 C.3     1  UNL1        0.0246
     23 C          57.9656   91.4017    4.7441 C.3     1  UNL1        0.0277
     24 C          58.8881   91.9734    3.7087 C.ar    1  UNL1       -0.0260
     25 C          58.3252   92.6728    2.5069 C.ar    1  UNL1       -0.0046
     26 C          59.2477   93.2445    1.4714 C.ar    1  UNL1       -0.0003
     27 C          60.7330   93.1167    1.6376 C.ar    1  UNL1       -0.0003
     28 C          61.2958   92.4173    2.8393 C.ar    1  UNL1       -0.0045
     29 C          60.3734   91.8456    3.8748 C.ar    1  UNL1       -0.0245
     30 C          60.9362   91.1462    5.0765 C.3     1  UNL1        0.0456
@<TRIPOS>BOND
     1     1     2    2
     2     2     3    1
     3     3     4    1
     4     4     5    1
     5     5     6    1
     6     6     7    1
     7     7     8   am
     8     8     9    2
     9     8    10   am
    10    10    21    1
    11    21    22    1
    12    22    23    1
    13    23    24    1
    14    24    25   ar
    15    25    26   ar
    16    26    27   ar
    17    27    28   ar
    18    28    29   ar
    19    29    30    1
    20     7    11    1
    21    11    12    1
    22     4    13    1
    23    13    14    1
    24    14    15   ar
    25    15    16   ar
    26    16    17   ar
    27    17    18   ar
    28    18    19   ar
    29    19     2    1
    30    12     4    1
    31    19    14   ar
    32    30    21    1
    33    29    24   ar
    34    10    20    1
@<TRIPOS>MOLECULE
*****
 30 34 0 0 0
SMALL
GASTEIGER

@<TRIPOS>ATOM
      1 O          62.6959   95.6948   -1.7932 O.2     1  UNL1       -0.2911
      2 C          61.4692   95.2099   -1.0789 C.2     1  UNL1        0.1795
      3 C          61.6032   94.3382    0.1344 C.3     1  UNL1        0.1092
      4 C          60.3765   93.8533    0.8486 C.3     1  UNL1        0.1436
      5 C          59.1498   93.3684    1.5628 C.3     1  UNL1        0.0620
      6 C          59.2838   92.4967    2.7761 C.3     1  UNL1        0.0985
      7 N          60.6444   92.1099    3.2752 N.am    1  UNL1       -0.2640
      8 C          60.7783   91.2381    4.4886 C.2     1  UNL1        0.3039
      9 O          62.1389   90.8513    4.9877 O.2     1  UNL1       -0.2526
     10 N          59.5517   90.7532    5.2028 N.am    1  UNL1       -0.2901
     11 C          61.8711   92.5947    2.5610 C.3     1  UNL1        0.0985
     12 C          61.7371   93.4664    1.3477 C.3     1  UNL1        0.0620
     13 O          59.0159   94.2401    0.3496 O.3     1  UNL1       -0.4819
     14 C          58.8820   95.1119   -0.8638 C.ar    1  UNL1        0.1409
     15 C          57.5213   95.4987   -1.3629 C.ar    1  UNL1        0.0370
     16 C          57.3874   96.3704   -2.5762 C.ar    1  UNL1        0.0031
     17 C          58.6141   96.8553   -3.2905 C.ar    1  UNL1        0.0003
     18 C          59.9747   96.4685   -2.7914 C.ar    1  UNL1        0.0059
     19 C          60.1086   95.5967   -1.5780 C.ar    1  UNL1        0.0687
     20 H          58.6587   91.0071    4.8752 H       1  UNL1        0.1509
     21 C          59.6856   89.8815    6.4162 C.3     1  UNL1        0.0777
     22 C          59.3470   88.4226    6.3325 C.3     1  UNL1        0.0246
     23 C          59.4809   87.5508    7.5458 C.3     1  UNL1        0.0277
     24 C          59.9534   88.1380    8.8427 C.ar    1  UNL1       -0.0260
     25 C          60.0873   87.2662   10.0561 C.ar    1  UNL1       -0.0046
     26 C          60.5597   87.8534   11.3530 C.ar    1  UNL1       -0.0003
     27 C          60.8983   89.3123   11.4366 C.ar    1  UNL1       -0.0003
     28 C          60.7644   90.1840   10.2233 C.ar    1  UNL1       -0.0045
     29 C          60.2919   89.5969    8.9263 C.ar    1  UNL1       -0.0245
     30 C          60.1580   90.4686    7.7131 C.3     1  UNL1        0.0456
@<TRIPOS>BOND
     1     1     2    2
     2     2     3    1
     3     3     4    1
     4     4     5    1
     5     5     6    1
     6     6     7    1
     7     7     8   am
     8     8     9    2
     9     8    10   am
    10    10    21    1
    11    21    22    1
    12    22    23    1
    13    23    24    1
    14    24    25   ar
    15    25    26   ar
    16    26    27   ar
    17    27    28   ar
    18    28    29   ar
    19    29    30    1
    20     7    11    1
    21    11    12    1
    22     4    13    1
    23    13    14    1
    24    14    15   ar
    25    15    16   ar
    26    16    17   ar
    27    17    18   ar
    28    18    19   ar
    29    19     2    1
    30    12     4    1
    31    19    14   ar
    32    30    21    1
    33    29    24   ar
    34    10    20    1
