@<TRIPOS>MOLECULE
*****
 31 35 0 0 0
SMALL
GASTEIGER

@<TRIPOS>ATOM
      1 C          64.6881   90.1365   14.2205 C.ar    1  UNL1        0.0670
      2 C          64.0996   90.6417   12.9366 C.ar    1  UNL1        0.0191
      3 C          64.5289   91.9693   12.3861 C.ar    1  UNL1        0.0203
      4 C          65.5468   92.7916   13.1194 C.ar    1  UNL1        0.0795
      5 C          66.1353   92.2864   14.4032 C.ar    1  UNL1        0.0396
      6 C          67.1118   93.3108   14.9003 C.ar    1  UNL1        0.1216
      7 N          67.1268   94.4492   13.9236 N.ar    1  UNL1       -0.1677
      8 N          66.1595   94.1284   12.8229 N.ar    1  UNL1       -0.2494
      9 C          65.7060   90.9588   14.9538 C.ar    1  UNL1        0.0207
     10 O          63.1819   90.0034   16.8115 O.2     1  UNL1       -0.2665
     11 C          63.5057   88.7423   16.0666 C.ar    1  UNL1        0.2679
     12 C          63.0764   87.4147   16.6172 C.ar    1  UNL1        0.0980
     13 C          63.4002   86.1536   15.8723 C.ar    1  UNL1        0.1453
     14 C          64.1533   86.2201   14.5768 C.ar    1  UNL1        0.0561
     15 C          64.5826   87.5478   14.0262 C.ar    1  UNL1        0.0860
     16 N          64.2588   88.8088   14.7711 N.ar    1  UNL1       -0.2729
     17 O          62.9709   84.8260   16.4229 O.3     1  UNL1       -0.4704
     18 C          61.9577   84.0008   15.6864 C.3     1  UNL1        0.2320
     19 C          62.4086   82.9608   14.7040 C.ar    1  UNL1        0.0212
     20 C          61.5414   81.7699   14.4216 C.ar    1  UNL1       -0.0007
     21 C          61.9923   80.7299   13.4392 C.ar    1  UNL1       -0.0002
     22 C          63.3104   80.8808   12.7392 C.ar    1  UNL1       -0.0000
     23 C          64.1775   82.0717   13.0216 C.ar    1  UNL1       -0.0002
     24 C          63.7266   83.1117   14.0040 C.ar    1  UNL1       -0.0007
     25 C          65.8580   94.9924   11.6345 C.3     1  UNL1        0.1447
     26 C          66.8814   95.1612   10.5509 C.3     1  UNL1        0.0988
     27 N          67.5250   93.9556    9.9328 N.3     1  UNL1       -0.2710
     28 C          68.2234   93.9117    8.6060 C.3     1  UNL1        0.0722
     29 C          68.7132   92.5111    8.3861 C.3     1  UNL1        0.0188
     30 C          68.3176   91.6893    9.5770 C.3     1  UNL1        0.0188
     31 C          67.5832   92.5821   10.5329 C.3     1  UNL1        0.0722
@<TRIPOS>BOND
     1    10    11    2
     2    11    12   ar
     3    12    13   ar
     4    13    17    1
     5    17    18    1
     6    18    19    1
     7    19    20   ar
     8    20    21   ar
     9    21    22   ar
    10    22    23   ar
    11    23    24   ar
    12    13    14   ar
    13    14    15   ar
    14    15    16   ar
    15    16     1    1
    16     1     2   ar
    17     2     3   ar
    18     3     4   ar
    19     4     5   ar
    20     5     6   ar
    21     6     7   ar
    22     7     8   ar
    23     8    25    1
    24    25    26    1
    25    26    27    1
    26    27    28    1
    27    28    29    1
    28    29    30    1
    29    30    31    1
    30     5     9   ar
    31    16    11   ar
    32     9     1   ar
    33    24    19   ar
    34     8     4   ar
    35    31    27    1
@<TRIPOS>MOLECULE
*****
 31 35 0 0 0
SMALL
GASTEIGER

@<TRIPOS>ATOM
      1 C          64.2618   89.0405   14.6656 C.ar    1  UNL1        0.0670
      2 C          64.3685   87.8525   13.7561 C.ar    1  UNL1        0.0191
      3 C          63.8816   86.5102   14.2155 C.ar    1  UNL1        0.0203
      4 C          63.2880   86.3559   15.5844 C.ar    1  UNL1        0.0795
      5 C          63.1814   87.5439   16.4939 C.ar    1  UNL1        0.0396
      6 C          62.5552   87.0892   17.7789 C.ar    1  UNL1        0.1216
      7 N          62.2748   85.6202   17.6635 N.ar    1  UNL1       -0.1677
      8 N          62.7277   85.1669   16.3073 N.ar    1  UNL1       -0.2494
      9 C          63.6683   88.8862   16.0345 C.ar    1  UNL1        0.0207
     10 O          63.0651   90.3166   12.2285 O.2     1  UNL1       -0.2665
     11 C          64.1504   91.0209   12.9876 C.ar    1  UNL1        0.2679
     12 C          64.6373   92.3632   12.5282 C.ar    1  UNL1        0.0980
     13 C          65.7226   93.0675   13.2873 C.ar    1  UNL1        0.1453
     14 C          66.3209   92.4295   14.5058 C.ar    1  UNL1        0.0561
     15 C          65.8340   91.0871   14.9653 C.ar    1  UNL1        0.0860
     16 N          64.7488   90.3829   14.2062 N.ar    1  UNL1       -0.2729
     17 O          66.2094   94.4099   12.8279 O.3     1  UNL1       -0.4704
     18 C          66.1669   94.7647   11.3711 C.3     1  UNL1        0.2320
     19 C          67.0085   94.0048   10.3892 C.ar    1  UNL1        0.0212
     20 C          67.4726   92.6163   10.7157 C.ar    1  UNL1       -0.0007
     21 C          68.3142   91.8564    9.7338 C.ar    1  UNL1       -0.0002
     22 C          68.6917   92.4850    8.4252 C.ar    1  UNL1       -0.0000
     23 C          68.2277   93.8735    8.0986 C.ar    1  UNL1       -0.0002
     24 C          67.3861   94.6334    9.0806 C.ar    1  UNL1       -0.0007
     25 C          62.6363   83.7700   15.7685 C.3     1  UNL1        0.1447
     26 C          63.8082   83.1630   15.0557 C.3     1  UNL1        0.0988
     27 N          63.6762   82.7359   13.6239 N.3     1  UNL1       -0.2710
     28 C          62.8389   81.5994   13.1165 C.3     1  UNL1        0.0722
     29 C          63.0035   81.5314   11.6271 C.3     1  UNL1        0.0188
     30 C          63.9424   82.6258   11.2140 C.3     1  UNL1        0.0188
     31 C          64.3581   83.3703   12.4481 C.3     1  UNL1        0.0722
@<TRIPOS>BOND
     1    10    11    2
     2    11    12   ar
     3    12    13   ar
     4    13    17    1
     5    17    18    1
     6    18    19    1
     7    19    20   ar
     8    20    21   ar
     9    21    22   ar
    10    22    23   ar
    11    23    24   ar
    12    13    14   ar
    13    14    15   ar
    14    15    16   ar
    15    16     1    1
    16     1     2   ar
    17     2     3   ar
    18     3     4   ar
    19     4     5   ar
    20     5     6   ar
    21     6     7   ar
    22     7     8   ar
    23     8    25    1
    24    25    26    1
    25    26    27    1
    26    27    28    1
    27    28    29    1
    28    29    30    1
    29    30    31    1
    30     5     9   ar
    31    16    11   ar
    32     9     1   ar
    33    24    19   ar
    34     8     4   ar
    35    31    27    1
@<TRIPOS>MOLECULE
*****
 31 35 0 0 0
SMALL
GASTEIGER

@<TRIPOS>ATOM
      1 C          61.8253   87.1027   10.6588 C.ar    1  UNL1        0.0670
      2 C          61.9641   85.6163   10.8055 C.ar    1  UNL1        0.0191
      3 C          62.7621   85.0460   11.9403 C.ar    1  UNL1        0.0203
      4 C          63.4214   85.9620   12.9283 C.ar    1  UNL1        0.0795
      5 C          63.2827   87.4483   12.7816 C.ar    1  UNL1        0.0396
      6 C          64.0400   88.0974   13.9019 C.ar    1  UNL1        0.1216
      7 N          64.6469   87.0122   14.7411 N.ar    1  UNL1       -0.1677
      8 N          64.2645   85.6924   14.1394 N.ar    1  UNL1       -0.2494
      9 C          62.4846   88.0186   11.6468 C.ar    1  UNL1        0.0207
     10 O          61.7089   90.0725   10.2507 O.2     1  UNL1       -0.2665
     11 C          60.9690   89.1580    9.3199 C.ar    1  UNL1        0.2679
     12 C          60.1710   89.7284    8.1851 C.ar    1  UNL1        0.0980
     13 C          59.4312   88.8139    7.2543 C.ar    1  UNL1        0.1453
     14 C          59.4894   87.3290    7.4583 C.ar    1  UNL1        0.0561
     15 C          60.2875   86.7586    8.5932 C.ar    1  UNL1        0.0860
     16 N          61.0273   87.6731    9.5239 N.ar    1  UNL1       -0.2729
     17 O          58.6331   89.3843    6.1195 O.3     1  UNL1       -0.4704
     18 C          58.6718   90.8578    5.8418 C.3     1  UNL1        0.2320
     19 C          59.6179   91.4026    4.8131 C.ar    1  UNL1        0.0212
     20 C          59.1457   92.4334    3.8310 C.ar    1  UNL1       -0.0007
     21 C          60.0919   92.9781    2.8024 C.ar    1  UNL1       -0.0002
     22 C          61.5101   92.4921    2.7559 C.ar    1  UNL1       -0.0000
     23 C          61.9823   91.4613    3.7379 C.ar    1  UNL1       -0.0002
     24 C          61.0362   90.9165    4.7665 C.ar    1  UNL1       -0.0007
     25 C          64.6565   84.3405   14.6577 C.3     1  UNL1        0.1447
     26 C          63.6147   83.4260   15.2306 C.3     1  UNL1        0.0988
     27 N          63.0568   82.3097   14.3983 N.3     1  UNL1       -0.2710
     28 C          61.6714   81.7434   14.4974 C.3     1  UNL1        0.0722
     29 C          61.5449   80.6475   13.4811 C.3     1  UNL1        0.0188
     30 C          62.8521   80.5365   12.7539 C.3     1  UNL1        0.0188
     31 C          63.7866   81.5638   13.3208 C.3     1  UNL1        0.0722
@<TRIPOS>BOND
     1    10    11    2
     2    11    12   ar
     3    12    13   ar
     4    13    17    1
     5    17    18    1
     6    18    19    1
     7    19    20   ar
     8    20    21   ar
     9    21    22   ar
    10    22    23   ar
    11    23    24   ar
    12    13    14   ar
    13    14    15   ar
    14    15    16   ar
    15    16     1    1
    16     1     2   ar
    17     2     3   ar
    18     3     4   ar
    19     4     5   ar
    20     5     6   ar
    21     6     7   ar
    22     7     8   ar
    23     8    25    1
    24    25    26    1
    25    26    27    1
    26    27    28    1
    27    28    29    1
    28    29    30    1
    29    30    31    1
    30     5     9   ar
    31    16    11   ar
    32     9     1   ar
    33    24    19   ar
    34     8     4   ar
    35    31    27    1
@<TRIPOS>MOLECULE
*****
 31 35 0 0 0
SMALL
GASTEIGER

@<TRIPOS>ATOM
      1 C          62.9855   90.3241   11.6283 C.ar    1  UNL1        0.0670
      2 C          63.7685   91.3020   10.8033 C.ar    1  UNL1        0.0191
      3 C          64.7854   92.1899   11.4572 C.ar    1  UNL1        0.0203
      4 C          65.0193   92.0998   12.9361 C.ar    1  UNL1        0.0795
      5 C          64.2364   91.1220   13.7611 C.ar    1  UNL1        0.0396
      6 C          64.6813   91.2579   15.1871 C.ar    1  UNL1        0.1216
      7 N          65.7392   92.3198   15.2435 N.ar    1  UNL1       -0.1677
      8 N          65.9481   92.8402   13.8522 N.ar    1  UNL1       -0.2494
      9 C          63.2195   90.2341   13.1072 C.ar    1  UNL1        0.0207
     10 O          62.8937   87.4015   12.2990 O.2     1  UNL1       -0.2665
     11 C          61.9226   87.9749   11.3098 C.ar    1  UNL1        0.2679
     12 C          60.9058   87.0870   10.6560 C.ar    1  UNL1        0.0980
     13 C          59.9348   87.6604    9.6668 C.ar    1  UNL1        0.1453
     14 C          59.9807   89.1217    9.3314 C.ar    1  UNL1        0.0561
     15 C          60.9976   90.0096    9.9853 C.ar    1  UNL1        0.0860
     16 N          61.9686   89.4362   10.9744 N.ar    1  UNL1       -0.2729
     17 O          58.9179   86.7725    9.0129 O.3     1  UNL1       -0.4704
     18 C          59.1570   86.2528    7.6263 C.3     1  UNL1        0.2320
     19 C          60.4702   85.6159    7.2801 C.ar    1  UNL1        0.0212
     20 C          61.6643   85.8323    8.1618 C.ar    1  UNL1       -0.0007
     21 C          62.9775   85.1955    7.8155 C.ar    1  UNL1       -0.0002
     22 C          63.0966   84.3422    6.5877 C.ar    1  UNL1       -0.0000
     23 C          61.9025   84.1257    5.7060 C.ar    1  UNL1       -0.0002
     24 C          60.5894   84.7626    6.0522 C.ar    1  UNL1       -0.0007
     25 C          66.9159   93.9126   13.4481 C.3     1  UNL1        0.1447
     26 C          66.4723   95.0186   12.5371 C.3     1  UNL1        0.0988
     27 N          66.8960   95.0206   11.0982 N.3     1  UNL1       -0.2710
     28 C          67.5045   93.8674   10.3566 C.3     1  UNL1        0.0722
     29 C          67.7701   94.3103    8.9484 C.3     1  UNL1        0.0188
     30 C          67.3260   95.7372    8.8196 C.3     1  UNL1        0.0188
     31 C          66.7857   96.1762   10.1483 C.3     1  UNL1        0.0722
@<TRIPOS>BOND
     1    10    11    2
     2    11    12   ar
     3    12    13   ar
     4    13    17    1
     5    17    18    1
     6    18    19    1
     7    19    20   ar
     8    20    21   ar
     9    21    22   ar
    10    22    23   ar
    11    23    24   ar
    12    13    14   ar
    13    14    15   ar
    14    15    16   ar
    15    16     1    1
    16     1     2   ar
    17     2     3   ar
    18     3     4   ar
    19     4     5   ar
    20     5     6   ar
    21     6     7   ar
    22     7     8   ar
    23     8    25    1
    24    25    26    1
    25    26    27    1
    26    27    28    1
    27    28    29    1
    28    29    30    1
    29    30    31    1
    30     5     9   ar
    31    16    11   ar
    32     9     1   ar
    33    24    19   ar
    34     8     4   ar
    35    31    27    1
@<TRIPOS>MOLECULE
*****
 31 35 0 0 0
SMALL
GASTEIGER

@<TRIPOS>ATOM
      1 C          62.2180   93.2767    1.3745 C.ar    1  UNL1        0.0670
      2 C          61.8564   92.9082   -0.0339 C.ar    1  UNL1        0.0191
      3 C          62.6183   93.4994   -1.1828 C.ar    1  UNL1        0.0203
      4 C          63.7416   94.4590   -0.9234 C.ar    1  UNL1        0.0795
      5 C          64.1031   94.8274    0.4850 C.ar    1  UNL1        0.0396
      6 C          65.2500   95.7927    0.4317 C.ar    1  UNL1        0.1216
      7 N          65.5973   96.0210   -1.0096 N.ar    1  UNL1       -0.1677
      8 N          64.6651   95.1967   -1.8471 N.ar    1  UNL1       -0.2494
      9 C          63.3413   94.2362    1.6339 C.ar    1  UNL1        0.0207
     10 O          59.3801   94.1086    1.8791 O.2     1  UNL1       -0.2665
     11 C          60.0372   93.1014    2.7758 C.ar    1  UNL1        0.2679
     12 C          59.2753   92.5103    3.9248 C.ar    1  UNL1        0.0980
     13 C          59.9324   91.5032    4.8215 C.ar    1  UNL1        0.1453
     14 C          61.3513   91.0872    4.5692 C.ar    1  UNL1        0.0561
     15 C          62.1132   91.6784    3.4202 C.ar    1  UNL1        0.0860
     16 N          61.4561   92.6855    2.5235 N.ar    1  UNL1       -0.2729
     17 O          59.1706   90.9121    5.9704 O.3     1  UNL1       -0.4704
     18 C          59.0508   89.4229    6.1039 C.3     1  UNL1        0.2320
     19 C          59.5383   88.7396    7.3471 C.ar    1  UNL1        0.0212
     20 C          60.1680   89.5426    8.4464 C.ar    1  UNL1       -0.0007
     21 C          60.6555   88.8594    9.6896 C.ar    1  UNL1       -0.0002
     22 C          60.5133   87.3731    9.8334 C.ar    1  UNL1       -0.0000
     23 C          59.8836   86.5700    8.7341 C.ar    1  UNL1       -0.0002
     24 C          59.3961   87.2533    7.4909 C.ar    1  UNL1       -0.0007
     25 C          64.6576   95.1229   -3.3453 C.3     1  UNL1        0.1447
     26 C          63.6554   95.9163   -4.1302 C.3     1  UNL1        0.0988
     27 N          62.1917   95.6157   -3.9986 N.3     1  UNL1       -0.2710
     28 C          61.4610   94.4848   -4.6597 C.3     1  UNL1        0.0722
     29 C          60.0195   94.5634   -4.2525 C.3     1  UNL1        0.0188
     30 C          59.8593   95.7429   -3.3398 C.3     1  UNL1        0.0188
     31 C          61.2018   96.3933   -3.1829 C.3     1  UNL1        0.0722
@<TRIPOS>BOND
     1    10    11    2
     2    11    12   ar
     3    12    13   ar
     4    13    17    1
     5    17    18    1
     6    18    19    1
     7    19    20   ar
     8    20    21   ar
     9    21    22   ar
    10    22    23   ar
    11    23    24   ar
    12    13    14   ar
    13    14    15   ar
    14    15    16   ar
    15    16     1    1
    16     1     2   ar
    17     2     3   ar
    18     3     4   ar
    19     4     5   ar
    20     5     6   ar
    21     6     7   ar
    22     7     8   ar
    23     8    25    1
    24    25    26    1
    25    26    27    1
    26    27    28    1
    27    28    29    1
    28    29    30    1
    29    30    31    1
    30     5     9   ar
    31    16    11   ar
    32     9     1   ar
    33    24    19   ar
    34     8     4   ar
    35    31    27    1
@<TRIPOS>MOLECULE
*****
 31 35 0 0 0
SMALL
GASTEIGER

@<TRIPOS>ATOM
      1 C          63.6338   87.2618   13.3768 C.ar    1  UNL1        0.0670
      2 C          62.7701   86.6215   12.3309 C.ar    1  UNL1        0.0191
      3 C          62.4410   85.1609   12.4212 C.ar    1  UNL1        0.0203
      4 C          62.9755   84.3406   13.5576 C.ar    1  UNL1        0.0795
      5 C          63.8392   84.9808   14.6036 C.ar    1  UNL1        0.0396
      6 C          64.2188   83.9262   15.6003 C.ar    1  UNL1        0.1216
      7 N          63.5898   82.6341   15.1704 N.ar    1  UNL1       -0.1677
      8 N          62.8214   82.8902   13.9079 N.ar    1  UNL1       -0.2494
      9 C          64.1683   86.4415   14.5132 C.ar    1  UNL1        0.0207
     10 O          62.6582   88.8778   11.0451 O.2     1  UNL1       -0.2665
     11 C          63.4751   89.5305   12.1206 C.ar    1  UNL1        0.2679
     12 C          63.8042   90.9911   12.0302 C.ar    1  UNL1        0.0980
     13 C          64.6212   91.6438   13.1057 C.ar    1  UNL1        0.1453
     14 C          65.1090   90.8359   14.2716 C.ar    1  UNL1        0.0561
     15 C          64.7798   89.3752   14.3619 C.ar    1  UNL1        0.0860
     16 N          63.9629   88.7225   13.2865 N.ar    1  UNL1       -0.2729
     17 O          64.9503   93.1045   13.0154 O.3     1  UNL1       -0.4704
     18 C          66.3653   93.5410   12.7764 C.3     1  UNL1        0.2320
     19 C          66.9602   93.4381   11.4032 C.ar    1  UNL1        0.0212
     20 C          66.8338   94.5838   10.4433 C.ar    1  UNL1       -0.0007
     21 C          67.4287   94.4809    9.0702 C.ar    1  UNL1       -0.0002
     22 C          68.1499   93.2323    8.6570 C.ar    1  UNL1       -0.0000
     23 C          68.2763   92.0866    9.6168 C.ar    1  UNL1       -0.0002
     24 C          67.6815   92.1895   10.9900 C.ar    1  UNL1       -0.0007
     25 C          62.0367   81.8743   13.1320 C.3     1  UNL1        0.1447
     26 C          62.4930   80.4460   13.0907 C.3     1  UNL1        0.0988
     27 N          62.6644   79.7511   11.7725 N.3     1  UNL1       -0.2710
     28 C          62.9535   80.4131   10.4579 C.3     1  UNL1        0.0722
     29 C          63.0446   79.3434    9.4104 C.3     1  UNL1        0.0188
     30 C          62.8118   78.0203   10.0775 C.3     1  UNL1        0.0188
     31 C          62.5768   78.2723   11.5374 C.3     1  UNL1        0.0722
@<TRIPOS>BOND
     1    10    11    2
     2    11    12   ar
     3    12    13   ar
     4    13    17    1
     5    17    18    1
     6    18    19    1
     7    19    20   ar
     8    20    21   ar
     9    21    22   ar
    10    22    23   ar
    11    23    24   ar
    12    13    14   ar
    13    14    15   ar
    14    15    16   ar
    15    16     1    1
    16     1     2   ar
    17     2     3   ar
    18     3     4   ar
    19     4     5   ar
    20     5     6   ar
    21     6     7   ar
    22     7     8   ar
    23     8    25    1
    24    25    26    1
    25    26    27    1
    26    27    28    1
    27    28    29    1
    28    29    30    1
    29    30    31    1
    30     5     9   ar
    31    16    11   ar
    32     9     1   ar
    33    24    19   ar
    34     8     4   ar
    35    31    27    1
@<TRIPOS>MOLECULE
*****
 31 35 0 0 0
SMALL
GASTEIGER

@<TRIPOS>ATOM
      1 C          61.6545   93.0084    1.4699 C.ar    1  UNL1        0.0670
      2 C          63.0395   93.5787    1.5492 C.ar    1  UNL1        0.0191
      3 C          63.6841   94.1563    0.3241 C.ar    1  UNL1        0.0203
      4 C          62.9436   94.1634   -0.9804 C.ar    1  UNL1        0.0795
      5 C          61.5586   93.5931   -1.0597 C.ar    1  UNL1        0.0396
      6 C          61.0779   93.7379   -2.4732 C.ar    1  UNL1        0.1216
      7 N          62.1659   94.3977   -3.2675 N.ar    1  UNL1       -0.1677
      8 N          63.3190   94.6607   -2.3449 N.ar    1  UNL1       -0.2494
      9 C          60.9140   93.0155    0.1654 C.ar    1  UNL1        0.0207
     10 O          63.2471   91.2696    3.3246 O.2     1  UNL1       -0.2665
     11 C          61.8062   91.5614    3.6224 C.ar    1  UNL1        0.2679
     12 C          61.1616   90.9839    4.8475 C.ar    1  UNL1        0.0980
     13 C          59.7207   91.2757    5.1453 C.ar    1  UNL1        0.1453
     14 C          58.9244   92.1451    4.2179 C.ar    1  UNL1        0.0561
     15 C          59.5690   92.7227    2.9928 C.ar    1  UNL1        0.0860
     16 N          61.0099   92.4308    2.6950 N.ar    1  UNL1       -0.2729
     17 O          59.0761   90.6982    6.3704 O.3     1  UNL1       -0.4704
     18 C          58.9254   89.2122    6.5088 C.3     1  UNL1        0.2320
     19 C          59.6283   88.4871    7.6180 C.ar    1  UNL1        0.0212
     20 C          59.6895   86.9884    7.6138 C.ar    1  UNL1       -0.0007
     21 C          60.3924   86.2634    8.7229 C.ar    1  UNL1       -0.0002
     22 C          61.0340   87.0371    9.8364 C.ar    1  UNL1       -0.0000
     23 C          60.9728   88.5358    9.8406 C.ar    1  UNL1       -0.0002
     24 C          60.2699   89.2608    8.7314 C.ar    1  UNL1       -0.0007
     25 C          64.6192   95.3075   -2.7207 C.3     1  UNL1        0.1447
     26 C          65.0327   95.3788   -4.1608 C.3     1  UNL1        0.0988
     27 N          64.7364   94.2341   -5.0838 N.3     1  UNL1       -0.2710
     28 C          64.0135   94.3231   -6.3951 C.3     1  UNL1        0.0722
     29 C          63.9414   92.9434   -6.9791 C.3     1  UNL1        0.0188
     30 C          64.6196   92.0017   -6.0289 C.3     1  UNL1        0.0188
     31 C          65.1110   92.7994   -4.8574 C.3     1  UNL1        0.0722
@<TRIPOS>BOND
     1    10    11    2
     2    11    12   ar
     3    12    13   ar
     4    13    17    1
     5    17    18    1
     6    18    19    1
     7    19    20   ar
     8    20    21   ar
     9    21    22   ar
    10    22    23   ar
    11    23    24   ar
    12    13    14   ar
    13    14    15   ar
    14    15    16   ar
    15    16     1    1
    16     1     2   ar
    17     2     3   ar
    18     3     4   ar
    19     4     5   ar
    20     5     6   ar
    21     6     7   ar
    22     7     8   ar
    23     8    25    1
    24    25    26    1
    25    26    27    1
    26    27    28    1
    27    28    29    1
    28    29    30    1
    29    30    31    1
    30     5     9   ar
    31    16    11   ar
    32     9     1   ar
    33    24    19   ar
    34     8     4   ar
    35    31    27    1
@<TRIPOS>MOLECULE
*****
 31 35 0 0 0
SMALL
GASTEIGER

@<TRIPOS>ATOM
      1 C          64.4055   89.3416   13.3804 C.ar    1  UNL1        0.0670
      2 C          64.7301   88.5166   14.5903 C.ar    1  UNL1        0.0191
      3 C          64.1877   87.1238   14.7158 C.ar    1  UNL1        0.0203
      4 C          63.3207   86.5560   13.6315 C.ar    1  UNL1        0.0795
      5 C          62.9960   87.3810   12.4216 C.ar    1  UNL1        0.0396
      6 C          62.1218   86.5593   11.5212 C.ar    1  UNL1        0.1216
      7 N          61.9061   85.2265   12.1747 N.ar    1  UNL1       -0.1677
      8 N          62.6470   85.2244   13.4789 N.ar    1  UNL1       -0.2494
      9 C          63.5385   88.7738   12.2960 C.ar    1  UNL1        0.0207
     10 O          63.6251   91.0499   11.0410 O.2     1  UNL1       -0.2665
     11 C          64.5577   91.5886   12.0851 C.ar    1  UNL1        0.2679
     12 C          65.1001   92.9815   11.9595 C.ar    1  UNL1        0.0980
     13 C          66.0327   93.5202   13.0036 C.ar    1  UNL1        0.1453
     14 C          66.4229   92.6660   14.1732 C.ar    1  UNL1        0.0561
     15 C          65.8805   91.2731   14.2988 C.ar    1  UNL1        0.0860
     16 N          64.9479   90.7345   13.2548 N.ar    1  UNL1       -0.2729
     17 O          66.5751   94.9130   12.8779 O.3     1  UNL1       -0.4704
     18 C          65.9470   95.8786   11.9171 C.3     1  UNL1        0.2320
     19 C          66.3162   95.8376   10.4637 C.ar    1  UNL1        0.0212
     20 C          65.7509   96.8548    9.5174 C.ar    1  UNL1       -0.0007
     21 C          66.1200   96.8137    8.0641 C.ar    1  UNL1       -0.0002
     22 C          67.0545   95.7555    7.5572 C.ar    1  UNL1       -0.0000
     23 C          67.6198   94.7383    8.5036 C.ar    1  UNL1       -0.0002
     24 C          67.2507   94.7793    9.9569 C.ar    1  UNL1       -0.0007
     25 C          62.7043   84.0899   14.4586 C.3     1  UNL1        0.1447
     26 C          63.4690   82.8446   14.1202 C.3     1  UNL1        0.0988
     27 N          63.5736   82.3931   12.6936 N.3     1  UNL1       -0.2710
     28 C          64.4861   82.9683   11.6513 C.3     1  UNL1        0.0722
     29 C          64.2604   82.2177   10.3724 C.3     1  UNL1        0.0188
     30 C          63.2084   81.1785   10.6243 C.3     1  UNL1        0.0188
     31 C          62.7839   81.2869   12.0589 C.3     1  UNL1        0.0722
@<TRIPOS>BOND
     1    10    11    2
     2    11    12   ar
     3    12    13   ar
     4    13    17    1
     5    17    18    1
     6    18    19    1
     7    19    20   ar
     8    20    21   ar
     9    21    22   ar
    10    22    23   ar
    11    23    24   ar
    12    13    14   ar
    13    14    15   ar
    14    15    16   ar
    15    16     1    1
    16     1     2   ar
    17     2     3   ar
    18     3     4   ar
    19     4     5   ar
    20     5     6   ar
    21     6     7   ar
    22     7     8   ar
    23     8    25    1
    24    25    26    1
    25    26    27    1
    26    27    28    1
    27    28    29    1
    28    29    30    1
    29    30    31    1
    30     5     9   ar
    31    16    11   ar
    32     9     1   ar
    33    24    19   ar
    34     8     4   ar
    35    31    27    1
@<TRIPOS>MOLECULE
*****
 31 35 0 0 0
SMALL
GASTEIGER

@<TRIPOS>ATOM
      1 C          63.5733   87.2543   13.4913 C.ar    1  UNL1        0.0670
      2 C          62.5731   86.5462   12.6264 C.ar    1  UNL1        0.0191
      3 C          62.2665   85.0976   12.8664 C.ar    1  UNL1        0.0203
      4 C          62.9601   84.3572   13.9712 C.ar    1  UNL1        0.0795
      5 C          63.9603   85.0654   14.8361 C.ar    1  UNL1        0.0396
      6 C          64.4818   84.0822   15.8418 C.ar    1  UNL1        0.1216
      7 N          63.8039   82.7664   15.5985 N.ar    1  UNL1       -0.1677
      8 N          62.8634   82.9363   14.4424 N.ar    1  UNL1       -0.2494
      9 C          64.2669   86.5139   14.5962 C.ar    1  UNL1        0.0207
     10 O          62.5272   88.6220   11.0346 O.2     1  UNL1       -0.2665
     11 C          63.3569   89.3868   12.0230 C.ar    1  UNL1        0.2679
     12 C          63.6635   90.8354   11.7830 C.ar    1  UNL1        0.0980
     13 C          64.4932   91.6001   12.7714 C.ar    1  UNL1        0.1453
     14 C          65.0162   90.9163   13.9998 C.ar    1  UNL1        0.0561
     15 C          64.7095   89.4677   14.2397 C.ar    1  UNL1        0.0860
     16 N          63.8799   88.7030   13.2513 N.ar    1  UNL1       -0.2729
     17 O          64.7998   93.0487   12.5314 O.3     1  UNL1       -0.4704
     18 C          66.2243   93.5060   12.4241 C.3     1  UNL1        0.2320
     19 C          66.9334   93.4474   11.1035 C.ar    1  UNL1        0.0212
     20 C          67.6607   92.2000   10.6974 C.ar    1  UNL1       -0.0007
     21 C          68.3696   92.1415    9.3768 C.ar    1  UNL1       -0.0002
     22 C          68.3513   93.3305    8.4624 C.ar    1  UNL1       -0.0000
     23 C          67.6241   94.5779    8.8686 C.ar    1  UNL1       -0.0002
     24 C          66.9151   94.6363   10.1891 C.ar    1  UNL1       -0.0007
     25 C          61.9812   81.8723   13.8597 C.3     1  UNL1        0.1447
     26 C          62.2708   81.3225   12.4945 C.3     1  UNL1        0.0988
     27 N          63.0578   82.1356   11.5099 N.3     1  UNL1       -0.2710
     28 C          62.4921   82.9280   10.3689 C.3     1  UNL1        0.0722
     29 C          63.6335   83.5811    9.6473 C.3     1  UNL1        0.0188
     30 C          64.9046   83.1924   10.3424 C.3     1  UNL1        0.0188
     31 C          64.5488   82.2990   11.4936 C.3     1  UNL1        0.0722
@<TRIPOS>BOND
     1    10    11    2
     2    11    12   ar
     3    12    13   ar
     4    13    17    1
     5    17    18    1
     6    18    19    1
     7    19    20   ar
     8    20    21   ar
     9    21    22   ar
    10    22    23   ar
    11    23    24   ar
    12    13    14   ar
    13    14    15   ar
    14    15    16   ar
    15    16     1    1
    16     1     2   ar
    17     2     3   ar
    18     3     4   ar
    19     4     5   ar
    20     5     6   ar
    21     6     7   ar
    22     7     8   ar
    23     8    25    1
    24    25    26    1
    25    26    27    1
    26    27    28    1
    27    28    29    1
    28    29    30    1
    29    30    31    1
    30     5     9   ar
    31    16    11   ar
    32     9     1   ar
    33    24    19   ar
    34     8     4   ar
    35    31    27    1
