@<TRIPOS>MOLECULE
*****
 41 45 0 0 0
SMALL
GASTEIGER

@<TRIPOS>ATOM
      1 N          62.1420   87.4107   11.2235 N.am    1  UNL1       -0.2733
      2 C          63.0085   87.3929   12.4478 C.2     1  UNL1        0.2462
      3 O          63.4510   86.0852   13.0345 O.2     1  UNL1       -0.2730
      4 C          63.4325   88.6827   13.0854 C.3     1  UNL1        0.1759
      5 N          62.9900   89.9904   12.4988 N.am    1  UNL1       -0.2951
      6 C          62.1235   90.0082   11.2745 C.2     1  UNL1        0.2390
      7 O          61.6810   91.3159   10.6878 O.2     1  UNL1       -0.2734
      8 C          61.6995   88.7183   10.6368 C.3     1  UNL1        0.1314
      9 C          61.2756   87.4285    9.9992 C.3     1  UNL1        0.0445
     10 C          60.4092   87.4464    8.7749 C.3     1  UNL1        0.0745
     11 N          59.9667   88.7540    8.1882 N.3     1  UNL1       -0.2688
     12 C          60.3906   90.0439    8.8258 C.3     1  UNL1        0.0745
     13 C          61.2570   90.0260   10.0501 C.3     1  UNL1        0.0445
     14 H          63.2682   90.8369   12.9173 H       1  UNL1        0.1499
     15 C          64.2990   88.6649   14.3098 C.3     1  UNL1        0.1372
     16 O          64.7525   87.3576   14.8887 O.3     1  UNL1       -0.3823
     17 H          64.3998   86.6281   14.3554 H       1  UNL1        0.2104
     18 C          64.7119   89.9544   14.9552 C.3     1  UNL1        0.0291
     19 C          65.9725   90.6410   14.5199 C.3     1  UNL1        0.0025
     20 C          66.3855   91.9305   15.1653 C.3     1  UNL1        0.0001
     21 C          65.5378   92.5336   16.2460 C.3     1  UNL1        0.0000
     22 C          64.2771   91.8470   16.6813 C.3     1  UNL1        0.0001
     23 C          63.8642   90.5574   16.0358 C.3     1  UNL1        0.0025
     24 C          61.7181   86.1209   10.5859 C.3     1  UNL1        0.0938
     25 C          62.7466   85.2030    9.9944 C.3     1  UNL1        0.0215
     26 C          64.2377   83.0838   10.1828 C.3     1  UNL1        0.0001
     27 C          63.1233   83.9391   10.7089 C.3     1  UNL1        0.0018
     28 C          59.1002   88.7718    6.9639 C.3     1  UNL1        0.0992
     29 C          59.1803   89.9225    6.0050 C.ar    1  UNL1       -0.0059
     30 C          57.9367   90.6702    5.6251 C.ar    1  UNL1        0.0002
     31 C          58.0168   91.8209    4.6662 C.ar    1  UNL1        0.0372
     32 C          59.3406   92.2239    4.0873 C.ar    1  UNL1        0.1453
     33 C          60.5842   91.4763    4.4672 C.ar    1  UNL1        0.0372
     34 C          60.5041   90.3256    5.4260 C.ar    1  UNL1        0.0002
     35 O          59.4207   93.3746    3.1284 O.3     1  UNL1       -0.4535
     36 C          60.1221   93.2074    1.8131 C.ar    1  UNL1        0.1453
     37 C          61.6076   93.3962    1.7259 C.ar    1  UNL1        0.0375
     38 C          62.3090   93.2289    0.4106 C.ar    1  UNL1        0.0031
     39 C          61.5249   92.8730   -0.8176 C.ar    1  UNL1        0.0002
     40 C          60.0393   92.6842   -0.7305 C.ar    1  UNL1        0.0031
     41 C          59.3379   92.8514    0.5849 C.ar    1  UNL1        0.0375
@<TRIPOS>BOND
     1    26    27    1
     2    27    25    1
     3    25    24    1
     4    24     1    1
     5     1     2   am
     6     2     3    2
     7     2     4    1
     8     4    15    1
     9    15    16    1
    10    15    18    1
    11    18    19    1
    12    19    20    1
    13    20    21    1
    14    21    22    1
    15    22    23    1
    16     4     5    1
    17     5     6   am
    18     6     7    2
    19     6     8    1
    20     8     9    1
    21     9    10    1
    22    10    11    1
    23    11    28    1
    24    28    29    1
    25    29    30   ar
    26    30    31   ar
    27    31    32   ar
    28    32    35    1
    29    35    36    1
    30    36    37   ar
    31    37    38   ar
    32    38    39   ar
    33    39    40   ar
    34    40    41   ar
    35    32    33   ar
    36    33    34   ar
    37    11    12    1
    38    12    13    1
    39     8     1    1
    40    34    29   ar
    41    23    18    1
    42    13     8    1
    43    41    36   ar
    44    16    17    1
    45     5    14    1
@<TRIPOS>MOLECULE
*****
 41 45 0 0 0
SMALL
GASTEIGER

@<TRIPOS>ATOM
      1 N          61.6005   88.4625   10.4366 N.am    1  UNL1       -0.2733
      2 C          62.3120   87.6453   11.4739 C.2     1  UNL1        0.2462
      3 O          63.0314   88.3255   12.6008 O.2     1  UNL1       -0.2730
      4 C          62.3042   86.1481   11.3844 C.3     1  UNL1        0.1759
      5 N          61.5848   85.4679   10.2575 N.am    1  UNL1       -0.2951
      6 C          60.8733   86.2850    9.2201 C.2     1  UNL1        0.2390
      7 O          60.1540   85.6048    8.0933 O.2     1  UNL1       -0.2734
      8 C          60.8811   87.7823    9.3097 C.3     1  UNL1        0.1314
      9 C          60.8890   89.2796    9.3992 C.3     1  UNL1        0.0445
     10 C          60.1775   90.0967    8.3619 C.3     1  UNL1        0.0745
     11 N          59.4581   89.4165    7.2350 N.3     1  UNL1       -0.2688
     12 C          59.4503   87.9192    7.1455 C.3     1  UNL1        0.0745
     13 C          60.1618   87.1021    8.1828 C.3     1  UNL1        0.0445
     14 H          61.5797   84.4851   10.1987 H       1  UNL1        0.1499
     15 C          63.0157   85.3309   12.4217 C.3     1  UNL1        0.1372
     16 O          63.7768   86.0117   13.5205 O.3     1  UNL1       -0.3823
     17 H          63.7078   86.9733   13.4138 H       1  UNL1        0.2104
     18 C          62.9662   83.8330   12.3603 C.3     1  UNL1        0.0291
     19 C          62.3861   83.0542   13.5036 C.3     1  UNL1        0.0025
     20 C          62.3366   81.5564   13.4421 C.3     1  UNL1        0.0001
     21 C          62.8670   80.8371   12.2373 C.3     1  UNL1        0.0000
     22 C          63.4471   81.6159   11.0941 C.3     1  UNL1        0.0001
     23 C          63.4966   83.1139   11.1555 C.3     1  UNL1        0.0025
     24 C          61.6084   89.9598   10.5261 C.3     1  UNL1        0.0938
     25 C          62.8413   90.7271   10.1505 C.3     1  UNL1        0.0215
     26 C          64.8071   92.2561   10.8906 C.3     1  UNL1        0.0001
     27 C          63.7710   91.2221   11.2184 C.3     1  UNL1        0.0018
     28 C          58.7466   90.2337    6.1977 C.3     1  UNL1        0.0992
     29 C          59.5338   90.9891    5.1683 C.ar    1  UNL1       -0.0059
     30 C          58.8866   92.1002    4.3959 C.ar    1  UNL1        0.0002
     31 C          59.6738   92.8557    3.3665 C.ar    1  UNL1        0.0372
     32 C          61.1082   92.5000    3.1096 C.ar    1  UNL1        0.1453
     33 C          61.7554   91.3889    3.8820 C.ar    1  UNL1        0.0372
     34 C          60.9682   90.6335    4.9114 C.ar    1  UNL1        0.0002
     35 O          61.8954   93.2555    2.0803 O.3     1  UNL1       -0.4535
     36 C          61.3548   93.4137    0.6900 C.ar    1  UNL1        0.1453
     37 C          60.2603   92.5107    0.2037 C.ar    1  UNL1        0.0375
     38 C          59.7197   92.6689   -1.1866 C.ar    1  UNL1        0.0031
     39 C          60.2736   93.7301   -2.0904 C.ar    1  UNL1        0.0002
     40 C          61.3682   94.6331   -1.6041 C.ar    1  UNL1        0.0031
     41 C          61.9088   94.4749   -0.2138 C.ar    1  UNL1        0.0375
@<TRIPOS>BOND
     1    26    27    1
     2    27    25    1
     3    25    24    1
     4    24     1    1
     5     1     2   am
     6     2     3    2
     7     2     4    1
     8     4    15    1
     9    15    16    1
    10    15    18    1
    11    18    19    1
    12    19    20    1
    13    20    21    1
    14    21    22    1
    15    22    23    1
    16     4     5    1
    17     5     6   am
    18     6     7    2
    19     6     8    1
    20     8     9    1
    21     9    10    1
    22    10    11    1
    23    11    28    1
    24    28    29    1
    25    29    30   ar
    26    30    31   ar
    27    31    32   ar
    28    32    35    1
    29    35    36    1
    30    36    37   ar
    31    37    38   ar
    32    38    39   ar
    33    39    40   ar
    34    40    41   ar
    35    32    33   ar
    36    33    34   ar
    37    11    12    1
    38    12    13    1
    39     8     1    1
    40    34    29   ar
    41    23    18    1
    42    13     8    1
    43    41    36   ar
    44    16    17    1
    45     5    14    1
@<TRIPOS>MOLECULE
*****
 41 45 0 0 0
SMALL
GASTEIGER

@<TRIPOS>ATOM
      1 N          64.3520   91.4246   12.6442 N.am    1  UNL1       -0.2733
      2 C          64.8781   92.5551   11.8103 C.2     1  UNL1        0.2462
      3 O          64.5854   92.6018   10.3399 O.2     1  UNL1       -0.2730
      4 C          65.6968   93.6389   12.4469 C.3     1  UNL1        0.1759
      5 N          65.9894   93.5922   13.9173 N.am    1  UNL1       -0.2951
      6 C          65.4634   92.4618   14.7512 C.2     1  UNL1        0.2390
      7 O          65.7561   92.4151   16.2216 O.2     1  UNL1       -0.2734
      8 C          64.6447   91.3780   14.1147 C.3     1  UNL1        0.1314
      9 C          63.8260   90.2942   13.4781 C.3     1  UNL1        0.0445
     10 C          63.3000   89.1638   14.3121 C.3     1  UNL1        0.0745
     11 N          63.5927   89.1171   15.7825 N.3     1  UNL1       -0.2688
     12 C          64.4113   90.2009   16.4190 C.3     1  UNL1        0.0745
     13 C          64.9374   91.3313   15.5851 C.3     1  UNL1        0.0445
     14 H          66.5268   94.3035   14.3351 H       1  UNL1        0.1499
     15 C          66.2228   94.7693   11.6130 C.3     1  UNL1        0.1372
     16 O          66.0431   96.1862   12.0713 O.3     1  UNL1       -0.3823
     17 H          65.5708   96.1946   12.9185 H       1  UNL1        0.2104
     18 C          66.9285   94.4829   10.3207 C.3     1  UNL1        0.0291
     19 C          66.7969   95.4332    9.1676 C.3     1  UNL1        0.0025
     20 C          67.5026   95.1467    7.8754 C.3     1  UNL1        0.0001
     21 C          68.3400   93.9100    7.7363 C.3     1  UNL1        0.0000
     22 C          68.4717   92.9597    8.8894 C.3     1  UNL1        0.0001
     23 C          67.7659   93.2462   10.1816 C.3     1  UNL1        0.0025
     24 C          63.5334   90.3409   12.0077 C.3     1  UNL1        0.0938
     25 C          62.3013   90.6918   11.2274 C.3     1  UNL1        0.0215
     26 C          62.0683   88.3948   10.0360 C.3     1  UNL1        0.0001
     27 C          61.9250   89.8878   10.0183 C.3     1  UNL1        0.0018
     28 C          63.0666   87.9867   16.6164 C.3     1  UNL1        0.0992
     29 C          63.2571   86.5692   16.1641 C.ar    1  UNL1       -0.0059
     30 C          62.2242   85.5321   16.4921 C.ar    1  UNL1        0.0002
     31 C          62.4147   84.1146   16.0398 C.ar    1  UNL1        0.0372
     32 C          63.6381   83.7343   15.2595 C.ar    1  UNL1        0.1453
     33 C          64.6709   84.7715   14.9316 C.ar    1  UNL1        0.0372
     34 C          64.4805   86.1889   15.3839 C.ar    1  UNL1        0.0002
     35 O          63.8285   82.3169   14.8073 O.3     1  UNL1       -0.4535
     36 C          63.6675   81.9639   13.3583 C.ar    1  UNL1        0.1453
     37 C          64.2541   82.8511   12.3006 C.ar    1  UNL1        0.0375
     38 C          64.0931   82.4981   10.8516 C.ar    1  UNL1        0.0031
     39 C          63.3456   81.2579   10.4604 C.ar    1  UNL1        0.0002
     40 C          62.7589   80.3707   11.5181 C.ar    1  UNL1        0.0031
     41 C          62.9199   80.7237   12.9671 C.ar    1  UNL1        0.0375
@<TRIPOS>BOND
     1    26    27    1
     2    27    25    1
     3    25    24    1
     4    24     1    1
     5     1     2   am
     6     2     3    2
     7     2     4    1
     8     4    15    1
     9    15    16    1
    10    15    18    1
    11    18    19    1
    12    19    20    1
    13    20    21    1
    14    21    22    1
    15    22    23    1
    16     4     5    1
    17     5     6   am
    18     6     7    2
    19     6     8    1
    20     8     9    1
    21     9    10    1
    22    10    11    1
    23    11    28    1
    24    28    29    1
    25    29    30   ar
    26    30    31   ar
    27    31    32   ar
    28    32    35    1
    29    35    36    1
    30    36    37   ar
    31    37    38   ar
    32    38    39   ar
    33    39    40   ar
    34    40    41   ar
    35    32    33   ar
    36    33    34   ar
    37    11    12    1
    38    12    13    1
    39     8     1    1
    40    34    29   ar
    41    23    18    1
    42    13     8    1
    43    41    36   ar
    44    16    17    1
    45     5    14    1
@<TRIPOS>MOLECULE
*****
 41 45 0 0 0
SMALL
GASTEIGER

@<TRIPOS>ATOM
      1 N          62.1435   87.4193   11.2446 N.am    1  UNL1       -0.2733
      2 C          62.9918   87.3997   12.4816 C.2     1  UNL1        0.2462
      3 O          63.4647   86.0929   13.0460 O.2     1  UNL1       -0.2730
      4 C          63.3673   88.6869   13.1540 C.3     1  UNL1        0.1759
      5 N          62.8944   89.9937   12.5895 N.am    1  UNL1       -0.2951
      6 C          62.0461   90.0134   11.3526 C.2     1  UNL1        0.2390
      7 O          61.5732   91.3202   10.7882 O.2     1  UNL1       -0.2734
      8 C          61.6706   88.7261   10.6801 C.3     1  UNL1        0.1314
      9 C          61.2952   87.4390   10.0077 C.3     1  UNL1        0.0445
     10 C          60.4469   87.4586    8.7708 C.3     1  UNL1        0.0745
     11 N          59.9740   88.7654    8.2064 N.3     1  UNL1       -0.2688
     12 C          60.3494   90.0526    8.8788 C.3     1  UNL1        0.0745
     13 C          61.1977   90.0330   10.1157 C.3     1  UNL1        0.0445
     14 H          63.1408   90.8385   13.0309 H       1  UNL1        0.1499
     15 C          64.2156   88.6673   14.3910 C.3     1  UNL1        0.1372
     16 O          65.4829   89.4681   14.4440 O.3     1  UNL1       -0.3823
     17 H          65.6049   89.9364   13.6033 H       1  UNL1        0.2104
     18 C          63.7967   87.8469   15.5748 C.3     1  UNL1        0.0291
     19 C          64.0814   86.3745   15.6055 C.3     1  UNL1        0.0025
     20 C          63.6625   85.5542   16.7893 C.3     1  UNL1        0.0001
     21 C          62.9588   86.2062   17.9425 C.3     1  UNL1        0.0000
     22 C          62.6742   87.6786   17.9118 C.3     1  UNL1        0.0001
     23 C          63.0931   88.4990   16.7279 C.3     1  UNL1        0.0025
     24 C          61.7680   86.1322   10.5722 C.3     1  UNL1        0.0938
     25 C          62.8356   85.2380   10.0147 C.3     1  UNL1        0.0215
     26 C          64.2251   83.0488   10.1778 C.3     1  UNL1        0.0001
     27 C          63.0265   83.8592   10.5736 C.3     1  UNL1        0.0018
     28 C          59.1256   88.7850    6.9694 C.3     1  UNL1        0.0992
     29 C          59.2129   89.9417    6.0184 C.ar    1  UNL1       -0.0059
     30 C          60.5386   90.3382    5.4394 C.ar    1  UNL1        0.0002
     31 C          60.6258   91.4949    4.4883 C.ar    1  UNL1        0.0372
     32 C          59.3874   92.2550    4.1163 C.ar    1  UNL1        0.1453
     33 C          58.0617   91.8585    4.6953 C.ar    1  UNL1        0.0372
     34 C          57.9744   90.7018    5.6463 C.ar    1  UNL1        0.0002
     35 O          59.4746   93.4117    3.1652 O.3     1  UNL1       -0.4535
     36 C          60.1467   93.2401    1.8352 C.ar    1  UNL1        0.1453
     37 C          59.3261   92.9642    0.6103 C.ar    1  UNL1        0.0375
     38 C          59.9982   92.7926   -0.7197 C.ar    1  UNL1        0.0031
     39 C          61.4909   92.8968   -0.8247 C.ar    1  UNL1        0.0002
     40 C          62.3115   93.1727    0.4003 C.ar    1  UNL1        0.0031
     41 C          61.6394   93.3443    1.7302 C.ar    1  UNL1        0.0375
@<TRIPOS>BOND
     1    26    27    1
     2    27    25    1
     3    25    24    1
     4    24     1    1
     5     1     2   am
     6     2     3    2
     7     2     4    1
     8     4    15    1
     9    15    16    1
    10    15    18    1
    11    18    19    1
    12    19    20    1
    13    20    21    1
    14    21    22    1
    15    22    23    1
    16     4     5    1
    17     5     6   am
    18     6     7    2
    19     6     8    1
    20     8     9    1
    21     9    10    1
    22    10    11    1
    23    11    28    1
    24    28    29    1
    25    29    30   ar
    26    30    31   ar
    27    31    32   ar
    28    32    35    1
    29    35    36    1
    30    36    37   ar
    31    37    38   ar
    32    38    39   ar
    33    39    40   ar
    34    40    41   ar
    35    32    33   ar
    36    33    34   ar
    37    11    12    1
    38    12    13    1
    39     8     1    1
    40    34    29   ar
    41    23    18    1
    42    13     8    1
    43    41    36   ar
    44    16    17    1
    45     5    14    1
@<TRIPOS>MOLECULE
*****
 41 45 0 0 0
SMALL
GASTEIGER

@<TRIPOS>ATOM
      1 N          61.7145   85.6660    9.1116 N.am    1  UNL1       -0.2733
      2 C          62.6237   84.9648   10.0769 C.2     1  UNL1        0.2462
      3 O          63.4076   83.7655    9.6328 O.2     1  UNL1       -0.2730
      4 C          62.7490   85.4630   11.4862 C.3     1  UNL1        0.1759
      5 N          61.9652   86.6623   11.9302 N.am    1  UNL1       -0.2951
      6 C          61.0560   87.3635   10.9650 C.2     1  UNL1        0.2390
      7 O          60.2721   88.5628   11.4091 O.2     1  UNL1       -0.2734
      8 C          60.9306   86.8653    9.5557 C.3     1  UNL1        0.1314
      9 C          60.8053   86.3672    8.1464 C.3     1  UNL1        0.0445
     10 C          59.8961   87.0684    7.1812 C.3     1  UNL1        0.0745
     11 N          59.1122   88.2677    7.6253 N.3     1  UNL1       -0.2688
     12 C          59.2376   88.7658    9.0345 C.3     1  UNL1        0.0745
     13 C          60.1468   88.0647    9.9997 C.3     1  UNL1        0.0445
     14 H          62.0475   86.9892   12.8552 H       1  UNL1        0.1499
     15 C          63.6583   84.7618   12.4515 C.3     1  UNL1        0.1372
     16 O          64.6658   83.7710   11.9482 O.3     1  UNL1       -0.3823
     17 H          64.5975   83.7023   10.9831 H       1  UNL1        0.2104
     18 C          63.5600   85.0514   13.9199 C.3     1  UNL1        0.0291
     19 C          64.3880   86.1457   14.5257 C.3     1  UNL1        0.0025
     20 C          64.2897   86.4353   15.9941 C.3     1  UNL1        0.0001
     21 C          63.3633   85.6306   16.8569 C.3     1  UNL1        0.0000
     22 C          62.5353   84.5363   16.2512 C.3     1  UNL1        0.0001
     23 C          62.6336   84.2467   14.7826 C.3     1  UNL1        0.0025
     24 C          61.5891   85.1679    7.7023 C.3     1  UNL1        0.0938
     25 C          62.8201   84.9266    6.8799 C.3     1  UNL1        0.0215
     26 C          61.3563   83.9420    4.9725 C.3     1  UNL1        0.0001
     27 C          62.7072   84.2717    5.5351 C.3     1  UNL1        0.0018
     28 C          58.2030   88.9689    6.6600 C.3     1  UNL1        0.0992
     29 C          58.7194   90.1135    5.8395 C.ar    1  UNL1       -0.0059
     30 C          57.7644   91.1249    5.2783 C.ar    1  UNL1        0.0002
     31 C          58.2809   92.2695    4.4578 C.ar    1  UNL1        0.0372
     32 C          59.7522   92.4027    4.1986 C.ar    1  UNL1        0.1453
     33 C          60.7072   91.3913    4.7598 C.ar    1  UNL1        0.0372
     34 C          60.1908   90.2467    5.5803 C.ar    1  UNL1        0.0002
     35 O          60.2686   93.5473    3.3781 O.3     1  UNL1       -0.4535
     36 C          60.7316   93.3125    1.9708 C.ar    1  UNL1        0.1453
     37 C          59.7657   92.8150    0.9366 C.ar    1  UNL1        0.0375
     38 C          60.2287   92.5803   -0.4707 C.ar    1  UNL1        0.0031
     39 C          61.6576   92.8430   -0.8439 C.ar    1  UNL1        0.0002
     40 C          62.6235   93.3405    0.1903 C.ar    1  UNL1        0.0031
     41 C          62.1606   93.5752    1.5976 C.ar    1  UNL1        0.0375
@<TRIPOS>BOND
     1    26    27    1
     2    27    25    1
     3    25    24    1
     4    24     1    1
     5     1     2   am
     6     2     3    2
     7     2     4    1
     8     4    15    1
     9    15    16    1
    10    15    18    1
    11    18    19    1
    12    19    20    1
    13    20    21    1
    14    21    22    1
    15    22    23    1
    16     4     5    1
    17     5     6   am
    18     6     7    2
    19     6     8    1
    20     8     9    1
    21     9    10    1
    22    10    11    1
    23    11    28    1
    24    28    29    1
    25    29    30   ar
    26    30    31   ar
    27    31    32   ar
    28    32    35    1
    29    35    36    1
    30    36    37   ar
    31    37    38   ar
    32    38    39   ar
    33    39    40   ar
    34    40    41   ar
    35    32    33   ar
    36    33    34   ar
    37    11    12    1
    38    12    13    1
    39     8     1    1
    40    34    29   ar
    41    23    18    1
    42    13     8    1
    43    41    36   ar
    44    16    17    1
    45     5    14    1
@<TRIPOS>MOLECULE
*****
 41 45 0 0 0
SMALL
GASTEIGER

@<TRIPOS>ATOM
      1 N          61.4137   86.3388    9.6632 N.am    1  UNL1       -0.2733
      2 C          62.2318   85.6811   10.7348 C.2     1  UNL1        0.2462
      3 O          62.6328   84.2424   10.5955 O.2     1  UNL1       -0.2730
      4 C          62.6489   86.4621   11.9455 C.3     1  UNL1        0.1759
      5 N          62.2479   87.9008   12.0848 N.am    1  UNL1       -0.2951
      6 C          61.4298   88.5585   11.0133 C.2     1  UNL1        0.2390
      7 O          61.0289   89.9972   11.1526 O.2     1  UNL1       -0.2734
      8 C          61.0127   87.7775    9.8025 C.3     1  UNL1        0.1314
      9 C          60.5956   86.9965    8.5917 C.3     1  UNL1        0.0445
     10 C          59.7775   87.6542    7.5202 C.3     1  UNL1        0.0745
     11 N          59.3766   89.0929    7.6595 N.3     1  UNL1       -0.2688
     12 C          59.7937   89.8739    8.8702 C.3     1  UNL1        0.0745
     13 C          60.6117   89.2162    9.9417 C.3     1  UNL1        0.0445
     14 H          62.5217   88.4134   12.8795 H       1  UNL1        0.1499
     15 C          63.4670   85.8044   13.0171 C.3     1  UNL1        0.1372
     16 O          64.3751   86.6295   13.8801 O.3     1  UNL1       -0.3823
     17 H          64.3145   87.5607   13.6154 H       1  UNL1        0.2104
     18 C          63.3770   84.3218   13.2257 C.3     1  UNL1        0.0291
     19 C          62.2536   83.7451   14.0353 C.3     1  UNL1        0.0025
     20 C          62.1635   82.2624   14.2439 C.3     1  UNL1        0.0001
     21 C          63.1970   81.3564   13.6429 C.3     1  UNL1        0.0000
     22 C          64.3204   81.9330   12.8334 C.3     1  UNL1        0.0001
     23 C          64.4104   83.4158   12.6248 C.3     1  UNL1        0.0025
     24 C          60.9966   85.5578    8.4524 C.3     1  UNL1        0.0938
     25 C          62.0238   85.1248    7.4487 C.3     1  UNL1        0.0215
     26 C          62.1830   84.4071    4.9568 C.3     1  UNL1        0.0001
     27 C          61.6409   84.1914    6.3387 C.3     1  UNL1        0.0018
     28 C          58.5585   89.7506    6.5879 C.3     1  UNL1        0.0992
     29 C          59.2248   90.6184    5.5619 C.ar    1  UNL1       -0.0059
     30 C          58.4111   91.5878    4.7568 C.ar    1  UNL1        0.0002
     31 C          59.0776   92.4557    3.7308 C.ar    1  UNL1        0.0372
     32 C          60.5577   92.3540    3.5098 C.ar    1  UNL1        0.1453
     33 C          61.3714   91.3846    4.3148 C.ar    1  UNL1        0.0372
     34 C          60.7050   90.5168    5.3408 C.ar    1  UNL1        0.0002
     35 O          61.2241   93.2218    2.4837 O.3     1  UNL1       -0.4535
     36 C          60.5127   93.5531    1.2054 C.ar    1  UNL1        0.1453
     37 C          59.8727   94.8982    1.0301 C.ar    1  UNL1        0.0375
     38 C          59.1613   95.2295   -0.2483 C.ar    1  UNL1        0.0031
     39 C          59.0899   94.2155   -1.3513 C.ar    1  UNL1        0.0002
     40 C          59.7300   92.8703   -1.1761 C.ar    1  UNL1        0.0031
     41 C          60.4414   92.5390    0.1023 C.ar    1  UNL1        0.0375
@<TRIPOS>BOND
     1    26    27    1
     2    27    25    1
     3    25    24    1
     4    24     1    1
     5     1     2   am
     6     2     3    2
     7     2     4    1
     8     4    15    1
     9    15    16    1
    10    15    18    1
    11    18    19    1
    12    19    20    1
    13    20    21    1
    14    21    22    1
    15    22    23    1
    16     4     5    1
    17     5     6   am
    18     6     7    2
    19     6     8    1
    20     8     9    1
    21     9    10    1
    22    10    11    1
    23    11    28    1
    24    28    29    1
    25    29    30   ar
    26    30    31   ar
    27    31    32   ar
    28    32    35    1
    29    35    36    1
    30    36    37   ar
    31    37    38   ar
    32    38    39   ar
    33    39    40   ar
    34    40    41   ar
    35    32    33   ar
    36    33    34   ar
    37    11    12    1
    38    12    13    1
    39     8     1    1
    40    34    29   ar
    41    23    18    1
    42    13     8    1
    43    41    36   ar
    44    16    17    1
    45     5    14    1
@<TRIPOS>MOLECULE
*****
 41 45 0 0 0
SMALL
GASTEIGER

@<TRIPOS>ATOM
      1 N          61.6723   87.9310   10.3599 N.am    1  UNL1       -0.2733
      2 C          62.4610   87.0439   11.2770 C.2     1  UNL1        0.2462
      3 O          63.1543   87.6277   12.4722 O.2     1  UNL1       -0.2730
      4 C          62.5564   85.5730   10.9989 C.3     1  UNL1        0.1759
      5 N          61.8632   84.9892    9.8037 N.am    1  UNL1       -0.2951
      6 C          61.0745   85.8763    8.8866 C.2     1  UNL1        0.2390
      7 O          60.3812   85.2925    7.6914 O.2     1  UNL1       -0.2734
      8 C          60.9791   87.3472    9.1647 C.3     1  UNL1        0.1314
      9 C          60.8837   88.8181    9.4428 C.3     1  UNL1        0.0445
     10 C          60.0950   89.7051    8.5257 C.3     1  UNL1        0.0745
     11 N          59.4017   89.1213    7.3305 N.3     1  UNL1       -0.2688
     12 C          59.4971   87.6505    7.0524 C.3     1  UNL1        0.0745
     13 C          60.2858   86.7634    7.9695 C.3     1  UNL1        0.0445
     14 H          61.9258   84.0238    9.6211 H       1  UNL1        0.1499
     15 C          63.3451   84.6859   11.9160 C.3     1  UNL1        0.1372
     16 O          64.2137   83.6028   11.3480 O.3     1  UNL1       -0.3823
     17 H          64.1514   83.6127   10.3801 H       1  UNL1        0.2104
     18 C          63.2652   84.8818   13.4009 C.3     1  UNL1        0.0291
     19 C          62.1387   84.2688   14.1788 C.3     1  UNL1        0.0025
     20 C          62.0588   84.4648   15.6638 C.3     1  UNL1        0.0001
     21 C          63.1055   85.2738   16.3710 C.3     1  UNL1        0.0000
     22 C          64.2321   85.8868   15.5931 C.3     1  UNL1        0.0001
     23 C          64.3119   85.6908   14.1080 C.3     1  UNL1        0.0025
     24 C          61.5769   89.4019   10.6380 C.3     1  UNL1        0.0938
     25 C          60.9801   89.8843   11.9269 C.3     1  UNL1        0.0215
     26 C          58.6285   89.0546   12.6557 C.3     1  UNL1        0.0001
     27 C          59.5001   90.1041   12.0321 C.3     1  UNL1        0.0018
     28 C          58.6130   90.0085    6.4134 C.3     1  UNL1        0.0992
     29 C          59.3175   90.8260    5.3717 C.ar    1  UNL1       -0.0059
     30 C          60.7848   90.6296    5.1299 C.ar    1  UNL1        0.0002
     31 C          61.4893   91.4472    4.0881 C.ar    1  UNL1        0.0372
     32 C          60.7265   92.4612    3.2881 C.ar    1  UNL1        0.1453
     33 C          59.2592   92.6576    3.5299 C.ar    1  UNL1        0.0372
     34 C          58.5547   91.8400    4.5716 C.ar    1  UNL1        0.0002
     35 O          61.4310   93.2787    2.2464 O.3     1  UNL1       -0.4535
     36 C          60.8033   93.4785    0.8988 C.ar    1  UNL1        0.1453
     37 C          60.1724   92.3193    0.1860 C.ar    1  UNL1        0.0375
     38 C          59.5447   92.5191   -1.1616 C.ar    1  UNL1        0.0031
     39 C          59.5479   93.8781   -1.7965 C.ar    1  UNL1        0.0002
     40 C          60.1789   95.0374   -1.0837 C.ar    1  UNL1        0.0031
     41 C          60.8066   94.8376    0.2639 C.ar    1  UNL1        0.0375
@<TRIPOS>BOND
     1    26    27    1
     2    27    25    1
     3    25    24    1
     4    24     1    1
     5     1     2   am
     6     2     3    2
     7     2     4    1
     8     4    15    1
     9    15    16    1
    10    15    18    1
    11    18    19    1
    12    19    20    1
    13    20    21    1
    14    21    22    1
    15    22    23    1
    16     4     5    1
    17     5     6   am
    18     6     7    2
    19     6     8    1
    20     8     9    1
    21     9    10    1
    22    10    11    1
    23    11    28    1
    24    28    29    1
    25    29    30   ar
    26    30    31   ar
    27    31    32   ar
    28    32    35    1
    29    35    36    1
    30    36    37   ar
    31    37    38   ar
    32    38    39   ar
    33    39    40   ar
    34    40    41   ar
    35    32    33   ar
    36    33    34   ar
    37    11    12    1
    38    12    13    1
    39     8     1    1
    40    34    29   ar
    41    23    18    1
    42    13     8    1
    43    41    36   ar
    44    16    17    1
    45     5    14    1
@<TRIPOS>MOLECULE
*****
 41 45 0 0 0
SMALL
GASTEIGER

@<TRIPOS>ATOM
      1 N          61.8650   95.0717   -1.0632 N.am    1  UNL1       -0.2733
      2 C          62.2099   95.1518   -2.5209 C.2     1  UNL1        0.2462
      3 O          63.2917   96.0811   -2.9856 O.2     1  UNL1       -0.2730
      4 C          61.4729   94.3026   -3.5137 C.3     1  UNL1        0.1759
      5 N          60.3910   93.3733   -3.0489 N.am    1  UNL1       -0.2951
      6 C          60.0461   93.2932   -1.5913 C.2     1  UNL1        0.2390
      7 O          58.9643   92.3639   -1.1266 O.2     1  UNL1       -0.2734
      8 C          60.7831   94.1424   -0.5984 C.3     1  UNL1        0.1314
      9 C          61.5201   94.9916    0.3944 C.3     1  UNL1        0.0445
     10 C          61.1752   94.9115    1.8520 C.3     1  UNL1        0.0745
     11 N          60.0933   93.9822    2.3167 N.3     1  UNL1       -0.2688
     12 C          59.3564   93.1330    1.3239 C.3     1  UNL1        0.0745
     13 C          59.7013   93.2131   -0.1337 C.3     1  UNL1        0.0445
     14 H          59.9073   92.8160   -3.7006 H       1  UNL1        0.1499
     15 C          61.8178   94.3827   -4.9714 C.3     1  UNL1        0.1372
     16 O          60.9876   95.2259   -5.8932 O.3     1  UNL1       -0.3823
     17 H          60.2737   95.6481   -5.3903 H       1  UNL1        0.2104
     18 C          62.9928   93.6195   -5.5071 C.3     1  UNL1        0.0291
     19 C          63.2146   93.5263   -6.9877 C.3     1  UNL1        0.0025
     20 C          64.3896   92.7632   -7.5234 C.3     1  UNL1        0.0001
     21 C          65.3428   92.0933   -6.5785 C.3     1  UNL1        0.0000
     22 C          65.1209   92.1865   -5.0979 C.3     1  UNL1        0.0001
     23 C          63.9459   92.9497   -4.5622 C.3     1  UNL1        0.0025
     24 C          62.6020   95.9209   -0.0704 C.3     1  UNL1        0.0938
     25 C          64.0918   95.8029    0.0578 C.3     1  UNL1        0.0215
     26 C          64.9269   93.5426    1.0292 C.3     1  UNL1        0.0001
     27 C          64.7582   94.4730   -0.1353 C.3     1  UNL1        0.0018
     28 C          59.7485   93.9022    3.7744 C.3     1  UNL1        0.0992
     29 C          59.5576   92.5655    4.4276 C.ar    1  UNL1       -0.0059
     30 C          60.7278   91.6442    4.6065 C.ar    1  UNL1        0.0002
     31 C          60.5369   90.3074    5.2598 C.ar    1  UNL1        0.0372
     32 C          59.1759   89.8920    5.7341 C.ar    1  UNL1        0.1453
     33 C          58.0057   90.8132    5.5552 C.ar    1  UNL1        0.0372
     34 C          58.1966   92.1499    4.9020 C.ar    1  UNL1        0.0002
     35 O          58.9850   88.5553    6.3873 O.3     1  UNL1       -0.4535
     36 C          59.7019   88.2360    7.6656 C.ar    1  UNL1        0.1453
     37 C          60.1114   89.3421    8.5923 C.ar    1  UNL1        0.0375
     38 C          60.8283   89.0228    9.8707 C.ar    1  UNL1        0.0031
     39 C          61.1357   87.5974   10.2223 C.ar    1  UNL1        0.0002
     40 C          60.7263   86.4912    9.2956 C.ar    1  UNL1        0.0031
     41 C          60.0094   86.8105    8.0173 C.ar    1  UNL1        0.0375
@<TRIPOS>BOND
     1    26    27    1
     2    27    25    1
     3    25    24    1
     4    24     1    1
     5     1     2   am
     6     2     3    2
     7     2     4    1
     8     4    15    1
     9    15    16    1
    10    15    18    1
    11    18    19    1
    12    19    20    1
    13    20    21    1
    14    21    22    1
    15    22    23    1
    16     4     5    1
    17     5     6   am
    18     6     7    2
    19     6     8    1
    20     8     9    1
    21     9    10    1
    22    10    11    1
    23    11    28    1
    24    28    29    1
    25    29    30   ar
    26    30    31   ar
    27    31    32   ar
    28    32    35    1
    29    35    36    1
    30    36    37   ar
    31    37    38   ar
    32    38    39   ar
    33    39    40   ar
    34    40    41   ar
    35    32    33   ar
    36    33    34   ar
    37    11    12    1
    38    12    13    1
    39     8     1    1
    40    34    29   ar
    41    23    18    1
    42    13     8    1
    43    41    36   ar
    44    16    17    1
    45     5    14    1
