@<TRIPOS>MOLECULE
*****
 44 46 0 0 0
SMALL
GASTEIGER

@<TRIPOS>ATOM
      1 C          63.4584   89.1583   12.6360 C.ar    1  UNL1        0.0539
      2 S          64.6117   90.0830   12.8907 S.2     1  UNL1       -0.0619
      3 C          64.2430   91.4392   12.3666 C.ar    1  UNL1        0.1641
      4 N          62.8618   91.3527   11.7879 N.ar    1  UNL1       -0.2291
      5 C          62.3769   89.9430   11.9544 C.ar    1  UNL1        0.1414
      6 C          61.0445   89.4115   11.5162 C.2     1  UNL1        0.2673
      7 O          59.7900   89.8858   12.1881 O.2     1  UNL1       -0.2682
      8 N          60.9664   88.4056   10.4063 N.am    1  UNL1       -0.2747
      9 C          59.6340   87.8741    9.9681 C.3     1  UNL1        0.0966
     10 C          59.5560   86.8682    8.8580 C.3     1  UNL1        0.0568
     11 C          60.8104   86.3939    8.1862 C.3     1  UNL1        0.1644
     12 F          60.7324   85.3880    7.0762 F       1  UNL1       -0.2372
     13 C          62.1429   86.9254    8.6243 C.3     1  UNL1        0.0568
     14 C          62.2209   87.9313    9.7343 C.3     1  UNL1        0.0966
     15 C          63.2752   84.7959   13.7252 C.ar    1  UNL1        0.1333
     16 C          62.8633   85.2446   12.3544 C.ar    1  UNL1        0.0208
     17 C          62.9244   86.6988   11.9914 C.ar    1  UNL1        0.0028
     18 C          63.3973   87.7041   12.9990 C.ar    1  UNL1        0.0191
     19 C          63.8092   87.2554   14.3698 C.ar    1  UNL1        0.0700
     20 CL         64.2822   88.2608   15.3775 Cl      1  UNL1       -0.0813
     21 C          63.7482   85.8013   14.7328 C.ar    1  UNL1        0.0867
     22 CL         64.1601   85.3526   16.1037 Cl      1  UNL1       -0.0800
     23 S          63.2142   83.3418   14.0882 S.O2    1  UNL1        0.0613
     24 O          61.8588   83.5505   14.6961 O.2     1  UNL1       -0.1530
     25 O          64.5695   83.1331   13.4803 O.2     1  UNL1       -0.1530
     26 N          63.1531   81.8877   14.4513 N.3     1  UNL1       -0.1723
     27 H          64.1106   81.5371   14.4249 H       1  UNL1        0.1491
     28 C          62.3238   80.9442   13.6315 C.3     1  UNL1        0.1700
     29 C          62.5850   80.7994   12.1616 C.3     1  UNL1        0.4118
     30 F          62.8461   80.6547   10.6916 F       1  UNL1       -0.1685
     31 F          63.0940   79.4069   12.3891 F       1  UNL1       -0.1685
     32 F          62.0759   82.1919   11.9340 F       1  UNL1       -0.1685
     33 C          59.8032   80.5756   14.1421 C.3     1  UNL1        0.0018
     34 C          61.2333   80.1453   14.2818 C.3     1  UNL1        0.0261
     35 C          65.1042   92.6664   12.4131 C.2     1  UNL1        0.2699
     36 O          65.7214   93.1009   13.7093 O.2     1  UNL1       -0.2679
     37 N          65.3482   93.4591   11.1633 N.am    1  UNL1       -0.2969
     38 H          64.9431   93.1739   10.3125 H       1  UNL1        0.1499
     39 C          66.2095   94.6863   11.2097 C.3     1  UNL1        0.1166
     40 C          67.0671   95.0457   10.0326 C.3     1  UNL1        0.1064
     41 C          67.2989   93.5896    9.7570 C.3     1  UNL1        0.0311
     42 C          66.8352   96.5019   10.3083 C.3     1  UNL1        0.0311
     43 O          67.9246   95.4051    8.8555 O.3     1  UNL1       -0.3851
     44 H          68.2508   94.5948    8.4337 H       1  UNL1        0.2103
@<TRIPOS>BOND
     1    33    34    1
     2    28    34    1
     3    28    26    1
     4    26    23    1
     5    23    24    2
     6    23    25    2
     7    23    15    1
     8    15    16   ar
     9    16    17   ar
    10    17    18   ar
    11    18     1    1
    12     1     2   ar
    13     2     3   ar
    14     3    35    1
    15    35    36    2
    16    35    37   am
    17    37    39    1
    18    39    40    1
    19    40    41    1
    20    40    42    1
    21    40    43    1
    22     3     4   ar
    23     4     5   ar
    24     5     6    1
    25     6     7    2
    26     6     8   am
    27     8     9    1
    28     9    10    1
    29    10    11    1
    30    11    12    1
    31    11    13    1
    32    13    14    1
    33    18    19   ar
    34    19    20    1
    35    19    21   ar
    36    21    22    1
    37    28    29    1
    38    29    30    1
    39    29    31    1
    40    29    32    1
    41    21    15   ar
    42     5     1   ar
    43    14     8    1
    44    26    27    1
    45    37    38    1
    46    43    44    1
@<TRIPOS>MOLECULE
*****
 44 46 0 0 0
SMALL
GASTEIGER

@<TRIPOS>ATOM
      1 C          61.7640   88.8213   10.6398 C.ar    1  UNL1        0.0539
      2 S          61.0878   89.5237    9.4999 S.2     1  UNL1       -0.0619
      3 C          60.2287   88.5243    8.7836 C.ar    1  UNL1        0.1641
      4 N          60.3739   87.2042    9.4808 N.ar    1  UNL1       -0.2291
      5 C          61.3227   87.3877   10.6280 C.ar    1  UNL1        0.1414
      6 C          61.7545   86.3243   11.5938 C.2     1  UNL1        0.2673
      7 O          61.3922   86.4373   13.0451 O.2     1  UNL1       -0.2682
      8 N          62.5486   85.1480   11.1085 N.am    1  UNL1       -0.2747
      9 C          62.9804   84.0846   12.0743 C.3     1  UNL1        0.0966
     10 C          63.7744   82.9083   11.5890 C.3     1  UNL1        0.0568
     11 C          64.1368   82.7952   10.1378 C.3     1  UNL1        0.1644
     12 F          64.9309   81.6188    9.6525 F       1  UNL1       -0.2372
     13 C          63.7050   83.8586    9.1719 C.3     1  UNL1        0.0568
     14 C          62.9110   85.0349    9.6573 C.3     1  UNL1        0.0966
     15 C          64.6154   90.6871   13.5789 C.ar    1  UNL1        0.1333
     16 C          63.9213   89.4018   13.9199 C.ar    1  UNL1        0.0208
     17 C          62.9708   88.7799   12.9402 C.ar    1  UNL1        0.0028
     18 C          62.7145   89.4432   11.6195 C.ar    1  UNL1        0.0191
     19 C          63.4086   90.7284   11.2785 C.ar    1  UNL1        0.0700
     20 CL         63.1523   91.3918    9.9578 Cl      1  UNL1       -0.0813
     21 C          64.3591   91.3504   12.2582 C.ar    1  UNL1        0.0867
     22 CL         65.0532   92.6357   11.9171 Cl      1  UNL1       -0.0800
     23 S          65.5659   91.3090   14.5586 S.O2    1  UNL1        0.0613
     24 O          66.0827   89.9483   14.9211 O.2     1  UNL1       -0.1530
     25 O          65.0492   92.6697   14.1961 O.2     1  UNL1       -0.1530
     26 N          66.5164   91.9309   15.5383 N.3     1  UNL1       -0.1723
     27 H          66.0408   92.7406   15.9365 H       1  UNL1        0.1491
     28 C          67.8642   92.4028   15.0794 C.3     1  UNL1        0.1700
     29 C          68.4691   93.6391   15.6757 C.3     1  UNL1        0.4118
     30 F          69.0739   94.8755   16.2720 F       1  UNL1       -0.1685
     31 F          67.5162   94.4864   14.8856 F       1  UNL1       -0.1685
     32 F          69.4219   92.7919   16.4658 F       1  UNL1       -0.1685
     33 C          68.4023   91.9676   12.5751 C.3     1  UNL1        0.0018
     34 C          68.6073   91.6383   14.0241 C.3     1  UNL1        0.0261
     35 C          59.3745   88.7972    7.5812 C.2     1  UNL1        0.2699
     36 O          58.2835   87.8395    7.2033 O.2     1  UNL1       -0.2679
     37 N          59.6111   90.0277    6.7567 N.am    1  UNL1       -0.2969
     38 H          60.3271   90.6562    7.0047 H       1  UNL1        0.1499
     39 C          58.7568   90.3005    5.5543 C.3     1  UNL1        0.1166
     40 C          58.9081   91.5907    4.8040 C.3     1  UNL1        0.1064
     41 C          60.3972   91.4105    4.7945 C.3     1  UNL1        0.0311
     42 C          57.4189   91.7707    4.8136 C.3     1  UNL1        0.0311
     43 O          59.0593   92.8807    4.0538 O.3     1  UNL1       -0.3851
     44 H          59.9998   93.0490    3.8862 H       1  UNL1        0.2103
@<TRIPOS>BOND
     1    33    34    1
     2    28    34    1
     3    28    26    1
     4    26    23    1
     5    23    24    2
     6    23    25    2
     7    23    15    1
     8    15    16   ar
     9    16    17   ar
    10    17    18   ar
    11    18     1    1
    12     1     2   ar
    13     2     3   ar
    14     3    35    1
    15    35    36    2
    16    35    37   am
    17    37    39    1
    18    39    40    1
    19    40    41    1
    20    40    42    1
    21    40    43    1
    22     3     4   ar
    23     4     5   ar
    24     5     6    1
    25     6     7    2
    26     6     8   am
    27     8     9    1
    28     9    10    1
    29    10    11    1
    30    11    12    1
    31    11    13    1
    32    13    14    1
    33    18    19   ar
    34    19    20    1
    35    19    21   ar
    36    21    22    1
    37    28    29    1
    38    29    30    1
    39    29    31    1
    40    29    32    1
    41    21    15   ar
    42     5     1   ar
    43    14     8    1
    44    26    27    1
    45    37    38    1
    46    43    44    1
@<TRIPOS>MOLECULE
*****
 44 46 0 0 0
SMALL
GASTEIGER

@<TRIPOS>ATOM
      1 C          63.8024   89.1271   13.7601 C.ar    1  UNL1        0.0539
      2 S          65.0150   89.9347   14.1170 S.2     1  UNL1       -0.0619
      3 C          64.7723   91.3508   13.6861 C.ar    1  UNL1        0.1641
      4 N          63.4096   91.4185   13.0628 N.ar    1  UNL1       -0.2291
      5 C          62.8102   90.0442   13.1085 C.ar    1  UNL1        0.1414
      6 C          61.4563   89.6552   12.5931 C.2     1  UNL1        0.2673
      7 O          60.2217   90.0881   13.3269 O.2     1  UNL1       -0.2682
      8 N          61.3369   88.8334   11.3440 N.am    1  UNL1       -0.2747
      9 C          59.9830   88.4445   10.8286 C.3     1  UNL1        0.0966
     10 C          59.8636   87.6227    9.5795 C.3     1  UNL1        0.0568
     11 C          61.0981   87.1898    8.8457 C.3     1  UNL1        0.1644
     12 F          60.9788   86.3680    7.5965 F       1  UNL1       -0.2372
     13 C          62.4521   87.5787    9.3610 C.3     1  UNL1        0.0568
     14 C          62.5715   88.4005   10.6101 C.3     1  UNL1        0.0966
     15 C          63.2400   84.7262   14.5118 C.ar    1  UNL1        0.1333
     16 C          63.4603   85.2263   13.1150 C.ar    1  UNL1        0.0208
     17 C          63.6477   86.6933   12.8644 C.ar    1  UNL1        0.0028
     18 C          63.6150   87.6601   14.0107 C.ar    1  UNL1        0.0191
     19 C          63.3947   87.1600   15.4075 C.ar    1  UNL1        0.0700
     20 CL         63.3620   88.1269   16.5539 Cl      1  UNL1       -0.0813
     21 C          63.2073   85.6930   15.6581 C.ar    1  UNL1        0.0867
     22 CL         62.9870   85.1929   17.0551 Cl      1  UNL1       -0.0800
     23 S          63.0526   83.2592   14.7624 S.O2    1  UNL1        0.0613
     24 O          64.5353   83.0968   14.9213 O.2     1  UNL1       -0.1530
     25 O          61.5699   83.4215   14.6035 O.2     1  UNL1       -0.1530
     26 N          62.8651   81.7922   15.0130 N.3     1  UNL1       -0.1723
     27 H          63.7467   81.4426   15.3884 H       1  UNL1        0.1491
     28 C          62.4836   80.8812   13.8841 C.3     1  UNL1        0.1700
     29 C          61.2866   79.9865   14.0141 C.3     1  UNL1        0.4118
     30 F          60.0897   79.0919   14.1440 F       1  UNL1       -0.1685
     31 F          60.4314   81.1770   14.3327 F       1  UNL1       -0.1685
     32 F          62.1418   78.7961   13.6955 F       1  UNL1       -0.1685
     33 C          62.9233   81.7536   11.4767 C.3     1  UNL1        0.0018
     34 C          63.2990   80.8649   12.6252 C.3     1  UNL1        0.0261
     35 C          65.7249   92.4978   13.8497 C.2     1  UNL1        0.2699
     36 O          65.7855   93.5767   12.8094 O.2     1  UNL1       -0.2679
     37 N          66.6169   92.5659   15.0537 N.am    1  UNL1       -0.2969
     38 H          66.5772   91.8578   15.7365 H       1  UNL1        0.1499
     39 C          67.5696   93.7129   15.2174 C.3     1  UNL1        0.1166
     40 C          68.8628   93.5149   15.9513 C.3     1  UNL1        0.1064
     41 C          69.1230   94.9910   15.8910 C.3     1  UNL1        0.0311
     42 C          68.6025   92.0388   16.0115 C.3     1  UNL1        0.0311
     43 O          70.1560   93.3168   16.6851 O.3     1  UNL1       -0.3851
     44 H          70.5934   94.1740   16.8066 H       1  UNL1        0.2103
@<TRIPOS>BOND
     1    33    34    1
     2    28    34    1
     3    28    26    1
     4    26    23    1
     5    23    24    2
     6    23    25    2
     7    23    15    1
     8    15    16   ar
     9    16    17   ar
    10    17    18   ar
    11    18     1    1
    12     1     2   ar
    13     2     3   ar
    14     3    35    1
    15    35    36    2
    16    35    37   am
    17    37    39    1
    18    39    40    1
    19    40    41    1
    20    40    42    1
    21    40    43    1
    22     3     4   ar
    23     4     5   ar
    24     5     6    1
    25     6     7    2
    26     6     8   am
    27     8     9    1
    28     9    10    1
    29    10    11    1
    30    11    12    1
    31    11    13    1
    32    13    14    1
    33    18    19   ar
    34    19    20    1
    35    19    21   ar
    36    21    22    1
    37    28    29    1
    38    29    30    1
    39    29    31    1
    40    29    32    1
    41    21    15   ar
    42     5     1   ar
    43    14     8    1
    44    26    27    1
    45    37    38    1
    46    43    44    1
@<TRIPOS>MOLECULE
*****
 44 46 0 0 0
SMALL
GASTEIGER

@<TRIPOS>ATOM
      1 C          60.9986   88.0955    9.3530 C.ar    1  UNL1        0.0539
      2 S          60.4814   88.1809    7.9476 S.2     1  UNL1       -0.0619
      3 C          59.9893   89.5793    7.7188 C.ar    1  UNL1        0.1641
      4 N          60.2025   90.3582    8.9828 N.ar    1  UNL1       -0.2291
      5 C          60.8263   89.4412    9.9928 C.ar    1  UNL1        0.1414
      6 C          61.2103   89.8059   11.3962 C.2     1  UNL1        0.2673
      7 O          60.3257   89.4125   12.5421 O.2     1  UNL1       -0.2682
      8 N          62.4787   90.5639   11.6538 N.am    1  UNL1       -0.2747
      9 C          62.8626   90.9286   13.0572 C.3     1  UNL1        0.0966
     10 C          64.1311   91.6866   13.3148 C.3     1  UNL1        0.0568
     11 C          65.0156   92.0800   12.1691 C.3     1  UNL1        0.1644
     12 F          66.2841   92.8380   12.4266 F       1  UNL1       -0.2372
     13 C          64.6317   91.7153   10.7656 C.3     1  UNL1        0.0568
     14 C          63.3633   90.9573   10.5080 C.3     1  UNL1        0.0966
     15 C          62.7585   84.4436   11.3066 C.ar    1  UNL1        0.1333
     16 C          61.9551   85.4154   12.1192 C.ar    1  UNL1        0.0208
     17 C          61.3685   86.6327   11.4680 C.ar    1  UNL1        0.0028
     18 C          61.5853   86.8782   10.0042 C.ar    1  UNL1        0.0191
     19 C          62.3886   85.9065    9.1916 C.ar    1  UNL1        0.0700
     20 CL         62.6054   86.1520    7.7278 Cl      1  UNL1       -0.0813
     21 C          62.9752   84.6892    9.8429 C.ar    1  UNL1        0.0867
     22 CL         63.7786   83.7174    9.0302 Cl      1  UNL1       -0.0800
     23 S          63.3451   83.2264   11.9579 S.O2    1  UNL1        0.0613
     24 O          62.1281   82.4363   11.5774 O.2     1  UNL1       -0.1530
     25 O          64.5621   84.0164   12.3383 O.2     1  UNL1       -0.1530
     26 N          63.9317   82.0091   12.6091 N.3     1  UNL1       -0.1723
     27 H          63.8835   81.2559   11.9229 H       1  UNL1        0.1491
     28 C          63.3359   81.4770   13.8787 C.3     1  UNL1        0.1700
     29 C          62.9234   82.4226   14.9675 C.3     1  UNL1        0.4118
     30 F          62.5109   83.3682   16.0564 F       1  UNL1       -0.1685
     31 F          64.3616   82.7763   15.2052 F       1  UNL1       -0.1685
     32 F          61.4852   82.0689   14.7298 F       1  UNL1       -0.1685
     33 C          62.3093   79.2240   13.0910 C.3     1  UNL1        0.0018
     34 C          63.1527   79.9992   14.0594 C.3     1  UNL1        0.0261
     35 C          59.3895   90.1062    6.4490 C.2     1  UNL1        0.2699
     36 O          57.9682   89.7787    6.0985 O.2     1  UNL1       -0.2679
     37 N          60.2109   90.9606    5.5296 N.am    1  UNL1       -0.2969
     38 H          61.1437   91.1755    5.7596 H       1  UNL1        0.1499
     39 C          59.6110   91.4875    4.2597 C.3     1  UNL1        0.1166
     40 C          60.4830   92.1596    3.2408 C.3     1  UNL1        0.1064
     41 C          59.2682   92.7596    2.5970 C.3     1  UNL1        0.0311
     42 C          61.6977   91.5595    3.8846 C.3     1  UNL1        0.0311
     43 O          61.3550   92.8316    2.2219 O.3     1  UNL1       -0.3851
     44 H          60.8023   93.3423    1.6098 H       1  UNL1        0.2103
@<TRIPOS>BOND
     1    33    34    1
     2    28    34    1
     3    28    26    1
     4    26    23    1
     5    23    24    2
     6    23    25    2
     7    23    15    1
     8    15    16   ar
     9    16    17   ar
    10    17    18   ar
    11    18     1    1
    12     1     2   ar
    13     2     3   ar
    14     3    35    1
    15    35    36    2
    16    35    37   am
    17    37    39    1
    18    39    40    1
    19    40    41    1
    20    40    42    1
    21    40    43    1
    22     3     4   ar
    23     4     5   ar
    24     5     6    1
    25     6     7    2
    26     6     8   am
    27     8     9    1
    28     9    10    1
    29    10    11    1
    30    11    12    1
    31    11    13    1
    32    13    14    1
    33    18    19   ar
    34    19    20    1
    35    19    21   ar
    36    21    22    1
    37    28    29    1
    38    29    30    1
    39    29    31    1
    40    29    32    1
    41    21    15   ar
    42     5     1   ar
    43    14     8    1
    44    26    27    1
    45    37    38    1
    46    43    44    1
@<TRIPOS>MOLECULE
*****
 44 46 0 0 0
SMALL
GASTEIGER

@<TRIPOS>ATOM
      1 C          62.5009   89.5074   11.0225 C.ar    1  UNL1        0.0539
      2 S          61.6292   89.9245    9.8752 S.2     1  UNL1       -0.0619
      3 C          60.8764   88.7166    9.4018 C.ar    1  UNL1        0.1641
      4 N          61.2828   87.5528   10.2566 N.ar    1  UNL1       -0.2291
      5 C          62.2867   88.0416   11.2582 C.ar    1  UNL1        0.1414
      6 C          62.9586   87.2105   12.3107 C.2     1  UNL1        0.2673
      7 O          63.5272   87.8661   13.5343 O.2     1  UNL1       -0.2682
      8 N          63.0618   85.7239   12.1398 N.am    1  UNL1       -0.2747
      9 C          63.7337   84.8928   13.1924 C.3     1  UNL1        0.0966
     10 C          63.8369   83.4062   13.0214 C.3     1  UNL1        0.0568
     11 C          63.2683   82.7506   11.7980 C.3     1  UNL1        0.1644
     12 F          63.3715   81.2639   11.6270 F       1  UNL1       -0.2372
     13 C          62.5964   83.5817   10.7454 C.3     1  UNL1        0.0568
     14 C          62.4932   85.0683   10.9163 C.3     1  UNL1        0.0966
     15 C          65.2716   92.1836   13.3487 C.ar    1  UNL1        0.1333
     16 C          64.6624   90.9812   14.0067 C.ar    1  UNL1        0.0208
     17 C          63.7388   90.0891   13.2313 C.ar    1  UNL1        0.0028
     18 C          63.4244   90.3995   11.7979 C.ar    1  UNL1        0.0191
     19 C          64.0336   91.6019   11.1398 C.ar    1  UNL1        0.0700
     20 CL         63.7193   91.9123    9.7063 Cl      1  UNL1       -0.0813
     21 C          64.9572   92.4939   11.9152 C.ar    1  UNL1        0.0867
     22 CL         65.5665   93.6964   11.2571 Cl      1  UNL1       -0.0800
     23 S          66.1952   93.0756   14.1241 S.O2    1  UNL1        0.0613
     24 O          67.1735   93.0508   12.9873 O.2     1  UNL1       -0.1530
     25 O          65.2168   93.1004   15.2609 O.2     1  UNL1       -0.1530
     26 N          67.1187   93.9677   14.8995 N.3     1  UNL1       -0.1723
     27 H          67.4762   94.6625   14.2439 H       1  UNL1        0.1491
     28 C          68.3079   93.3851   15.6042 C.3     1  UNL1        0.1700
     29 C          69.6138   94.1230   15.6069 C.3     1  UNL1        0.4118
     30 F          70.9198   94.8609   15.6097 F       1  UNL1       -0.1685
     31 F          69.0382   95.1382   16.5493 F       1  UNL1       -0.1685
     32 F          70.1894   93.1079   14.6645 F       1  UNL1       -0.1685
     33 C          67.9552   90.8126   15.5144 C.3     1  UNL1        0.0018
     34 C          68.1911   92.0646   16.3062 C.3     1  UNL1        0.0261
     35 C          59.8904   88.6789    8.2721 C.2     1  UNL1        0.2699
     36 O          59.0414   87.4610    8.0578 O.2     1  UNL1       -0.2679
     37 N          59.7533   89.8593    7.3567 N.am    1  UNL1       -0.2969
     38 H          60.3105   90.6586    7.4973 H       1  UNL1        0.1499
     39 C          58.7673   89.8216    6.2269 C.3     1  UNL1        0.1166
     40 C          58.7287   90.9397    5.2276 C.3     1  UNL1        0.1064
     41 C          60.2263   90.9182    5.1458 C.3     1  UNL1        0.0311
     42 C          57.2310   90.9612    5.3095 C.3     1  UNL1        0.0311
     43 O          58.6901   92.0577    4.2283 O.3     1  UNL1       -0.3851
     44 H          59.5948   92.2856    3.9630 H       1  UNL1        0.2103
@<TRIPOS>BOND
     1    33    34    1
     2    28    34    1
     3    28    26    1
     4    26    23    1
     5    23    24    2
     6    23    25    2
     7    23    15    1
     8    15    16   ar
     9    16    17   ar
    10    17    18   ar
    11    18     1    1
    12     1     2   ar
    13     2     3   ar
    14     3    35    1
    15    35    36    2
    16    35    37   am
    17    37    39    1
    18    39    40    1
    19    40    41    1
    20    40    42    1
    21    40    43    1
    22     3     4   ar
    23     4     5   ar
    24     5     6    1
    25     6     7    2
    26     6     8   am
    27     8     9    1
    28     9    10    1
    29    10    11    1
    30    11    12    1
    31    11    13    1
    32    13    14    1
    33    18    19   ar
    34    19    20    1
    35    19    21   ar
    36    21    22    1
    37    28    29    1
    38    29    30    1
    39    29    31    1
    40    29    32    1
    41    21    15   ar
    42     5     1   ar
    43    14     8    1
    44    26    27    1
    45    37    38    1
    46    43    44    1
@<TRIPOS>MOLECULE
*****
 44 46 0 0 0
SMALL
GASTEIGER

@<TRIPOS>ATOM
      1 C          61.1083   88.0451    9.4715 C.ar    1  UNL1        0.0539
      2 S          60.5365   88.1124    8.0864 S.2     1  UNL1       -0.0619
      3 C          60.1432   89.5344    7.8158 C.ar    1  UNL1        0.1641
      4 N          60.4720   90.3460    9.0337 N.ar    1  UNL1       -0.2291
      5 C          61.0685   89.4255   10.0569 C.ar    1  UNL1        0.1414
      6 C          61.5419   89.8169   11.4254 C.2     1  UNL1        0.2673
      7 O          60.7770   89.3762   12.6382 O.2     1  UNL1       -0.2682
      8 N          62.7802   90.6488   11.5811 N.am    1  UNL1       -0.2747
      9 C          63.2537   91.0402   12.9496 C.3     1  UNL1        0.0966
     10 C          64.4921   91.8721   13.1053 C.3     1  UNL1        0.0568
     11 C          65.2570   92.3128   11.8926 C.3     1  UNL1        0.1644
     12 F          66.4954   93.1448   12.0484 F       1  UNL1       -0.2372
     13 C          64.7836   91.9215   10.5241 C.3     1  UNL1        0.0568
     14 C          63.5452   91.0895   10.3684 C.3     1  UNL1        0.0966
     15 C          62.6693   84.3506   11.5121 C.ar    1  UNL1        0.1333
     16 C          61.8106   85.3196   12.2694 C.ar    1  UNL1        0.0208
     17 C          61.2903   86.5511   11.5892 C.ar    1  UNL1        0.0028
     18 C          61.6286   86.8136   10.1517 C.ar    1  UNL1        0.0191
     19 C          62.4873   85.8446    9.3943 C.ar    1  UNL1        0.0700
     20 CL         62.8257   86.1070    7.9567 Cl      1  UNL1       -0.0813
     21 C          63.0076   84.6131   10.0745 C.ar    1  UNL1        0.0867
     22 CL         63.8664   83.6440    9.3171 Cl      1  UNL1       -0.0800
     23 S          63.1896   83.1191   12.1923 S.O2    1  UNL1        0.0613
     24 O          61.9519   82.3736   11.7894 O.2     1  UNL1       -0.1530
     25 O          64.4273   83.8646   12.5952 O.2     1  UNL1       -0.1530
     26 N          63.7099   81.8876   12.8725 N.3     1  UNL1       -0.1723
     27 H          64.4700   81.5304   12.2937 H       1  UNL1        0.1491
     28 C          62.7902   80.7333   13.1401 C.3     1  UNL1        0.1700
     29 C          62.7709   79.5581   12.2082 C.3     1  UNL1        0.4118
     30 F          62.7516   78.3828   11.2762 F       1  UNL1       -0.1685
     31 F          63.0881   80.4658   11.0569 F       1  UNL1       -0.1685
     32 F          62.4537   78.6503   13.3594 F       1  UNL1       -0.1685
     33 C          60.4006   80.7435   14.1599 C.3     1  UNL1        0.0018
     34 C          61.8898   80.7541   14.3396 C.3     1  UNL1        0.0261
     35 C          59.5290   90.0536    6.5496 C.2     1  UNL1        0.2699
     36 O          58.1058   89.7191    6.2143 O.2     1  UNL1       -0.2679
     37 N          60.3381   90.9074    5.6188 N.am    1  UNL1       -0.2969
     38 H          61.2722   91.1270    5.8389 H       1  UNL1        0.1499
     39 C          59.7239   91.4266    4.3527 C.3     1  UNL1        0.1166
     40 C          60.5781   92.1244    3.3359 C.3     1  UNL1        0.1064
     41 C          61.7950   91.4476    3.8939 C.3     1  UNL1        0.0311
     42 C          59.3611   92.8011    2.7781 C.3     1  UNL1        0.0311
     43 O          61.4322   92.8222    2.3193 O.3     1  UNL1       -0.3851
     44 H          62.3582   92.5600    2.4403 H       1  UNL1        0.2103
@<TRIPOS>BOND
     1    33    34    1
     2    28    34    1
     3    28    26    1
     4    26    23    1
     5    23    24    2
     6    23    25    2
     7    23    15    1
     8    15    16   ar
     9    16    17   ar
    10    17    18   ar
    11    18     1    1
    12     1     2   ar
    13     2     3   ar
    14     3    35    1
    15    35    36    2
    16    35    37   am
    17    37    39    1
    18    39    40    1
    19    40    41    1
    20    40    42    1
    21    40    43    1
    22     3     4   ar
    23     4     5   ar
    24     5     6    1
    25     6     7    2
    26     6     8   am
    27     8     9    1
    28     9    10    1
    29    10    11    1
    30    11    12    1
    31    11    13    1
    32    13    14    1
    33    18    19   ar
    34    19    20    1
    35    19    21   ar
    36    21    22    1
    37    28    29    1
    38    29    30    1
    39    29    31    1
    40    29    32    1
    41    21    15   ar
    42     5     1   ar
    43    14     8    1
    44    26    27    1
    45    37    38    1
    46    43    44    1
