@<TRIPOS>MOLECULE
*****
 35 38 0 0 0
SMALL
GASTEIGER

@<TRIPOS>ATOM
      1 C          63.0297   90.4040   12.0369 C.ar    1  UNL1        0.0222
      2 C          64.3525   91.0382   11.7236 C.ar    1  UNL1        0.0220
      3 C          64.9794   91.4659   13.0174 C.ar    1  UNL1        0.0961
      4 C          66.2812   92.1443   13.3259 C.ar    1  UNL1        0.0685
      5 C          66.6476   92.4530   14.7474 C.ar    1  UNL1        0.0885
      6 C          65.7124   92.0832   15.8602 C.ar    1  UNL1        0.1263
      7 N          64.4107   91.4047   15.5517 N.ar    1  UNL1       -0.1633
      8 N          64.0442   91.0961   14.1303 N.ar    1  UNL1       -0.2270
      9 C          62.8392   90.4398   13.5243 C.ar    1  UNL1        0.1005
     10 C          60.1402   88.6943    9.0405 C.ar    1  UNL1        0.2250
     11 C          61.4298   87.9843    9.3285 C.ar    1  UNL1        0.0577
     12 C          62.3929   88.5542   10.3273 C.ar    1  UNL1        0.0064
     13 C          62.0665   89.8342   11.0381 C.ar    1  UNL1        0.0209
     14 C          60.7770   90.5442   10.7502 C.ar    1  UNL1        0.1021
     15 N          59.8139   89.9742    9.7514 N.ar    1  UNL1       -0.2101
     16 C          59.1368   86.6448    7.7986 C.3     1  UNL1        0.2542
     17 O          59.1771   88.1244    8.0418 O.3     1  UNL1       -0.4561
     18 C          67.9494   93.1314   15.0559 C.2     1  UNL1        0.2456
     19 N          67.9964   94.2409   16.0643 N.am    1  UNL1       -0.3252
     20 O          69.2042   92.7004   14.3560 O.2     1  UNL1       -0.2703
     21 H          67.1729   94.5238   16.5237 H       1  UNL1        0.1453
     22 H          68.8508   94.6862   16.2668 H       1  UNL1        0.1453
     23 N          67.2165   92.5142   12.2130 N.pl3   1  UNL1       -0.3327
     24 H          68.0221   91.9732   12.0468 H       1  UNL1        0.1468
     25 C          66.9243   93.7083   11.3535 C.3     1  UNL1        0.0702
     26 C          66.1881   94.9433   11.7808 C.3     1  UNL1        0.0208
     27 C          66.1259   95.8753   10.6072 C.3     1  UNL1        0.0160
     28 C          66.8237   95.2163    9.4545 C.3     1  UNL1        0.0404
     29 C          66.4602   96.4727    8.7202 C.3     1  UNL1        0.0156
     30 N          67.4455   94.8200    8.1483 N.3     1  UNL1       -0.3231
     31 C          67.3171   93.8770    9.9157 C.3     1  UNL1        0.0282
     32 C          67.8358   93.7606    8.5130 C.3     1  UNL1        0.0029
     33 C          67.9190   92.5134   10.0837 C.3     1  UNL1        0.0029
     34 H          67.3102   95.5668    7.4668 H       1  UNL1        0.1188
     35 H          67.0053   93.9651    7.8077 H       1  UNL1        0.1188
@<TRIPOS>BOND
     1    16    17    1
     2    17    10    1
     3    10    11   ar
     4    11    12   ar
     5    12    13   ar
     6    13     1    1
     7     1     2   ar
     8     2     3   ar
     9     3     4   ar
    10     4    23    1
    11    25    23    1
    12    25    26    1
    13    26    27    1
    14    27    28    1
    15    28    29    1
    16    28    30    1
    17    28    31    1
    18    31    32    1
    19    31    33    1
    20     4     5   ar
    21     5    18    1
    22    18    19   am
    23    18    20    2
    24     5     6   ar
    25     6     7   ar
    26     7     8   ar
    27     8     9   ar
    28    13    14   ar
    29    14    15   ar
    30    15    10   ar
    31     9     1   ar
    32     8     3   ar
    33    31    25    1
    34    23    24    1
    35    30    34    1
    36    30    35    1
    37    19    21    1
    38    19    22    1
@<TRIPOS>MOLECULE
*****
 35 38 0 0 0
SMALL
GASTEIGER

@<TRIPOS>ATOM
      1 C          62.9619   90.1115   12.0782 C.ar    1  UNL1        0.0222
      2 C          63.1832   88.7662   11.4527 C.ar    1  UNL1        0.0220
      3 C          62.0782   88.5259   10.4672 C.ar    1  UNL1        0.0961
      4 C          61.7786   87.3719    9.5570 C.ar    1  UNL1        0.0685
      5 C          60.5747   87.4147    8.6632 C.ar    1  UNL1        0.0885
      6 C          59.6705   88.6113    8.6796 C.ar    1  UNL1        0.1263
      7 N          59.9702   89.7653    9.5898 N.ar    1  UNL1       -0.1633
      8 N          61.1740   89.7226   10.4836 N.ar    1  UNL1       -0.2270
      9 C          61.7201   90.7026   11.4793 C.ar    1  UNL1        0.1005
     10 C          65.5661   92.0363   15.2029 C.ar    1  UNL1        0.2250
     11 C          65.8697   92.2349   13.7474 C.ar    1  UNL1        0.0577
     12 C          65.0016   91.5932   12.7059 C.ar    1  UNL1        0.0064
     13 C          63.8299   90.7531   13.1198 C.ar    1  UNL1        0.0209
     14 C          63.5263   90.5545   14.5753 C.ar    1  UNL1        0.1021
     15 N          64.3944   91.1962   15.6168 N.ar    1  UNL1       -0.2101
     16 C          67.9106   92.8077   16.0140 C.3     1  UNL1        0.2542
     17 O          66.4341   92.6779   16.2445 O.3     1  UNL1       -0.4561
     18 C          60.2750   86.2606    7.7529 C.2     1  UNL1        0.2456
     19 N          58.8527   85.9047    7.4363 N.am    1  UNL1       -0.3252
     20 O          61.3978   85.4625    7.1592 O.2     1  UNL1       -0.2703
     21 H          58.1158   86.4286    7.8260 H       1  UNL1        0.1453
     22 H          58.6560   85.1473    6.8389 H       1  UNL1        0.1453
     23 N          62.6828   86.1751    9.5405 N.pl3   1  UNL1       -0.3327
     24 H          63.2571   86.0027    8.7597 H       1  UNL1        0.1468
     25 C          62.7120   85.2410   10.7138 C.3     1  UNL1        0.0702
     26 C          62.1345   85.5123   12.0713 C.3     1  UNL1        0.0208
     27 C          62.3893   84.3106   12.9321 C.3     1  UNL1        0.0160
     28 C          63.1243   83.2966   12.1065 C.3     1  UNL1        0.0404
     29 C          63.0764   82.4736   13.3597 C.3     1  UNL1        0.0156
     30 N          63.8492   82.1105   11.5429 N.3     1  UNL1       -0.3231
     31 C          63.3237   83.8716   10.7355 C.3     1  UNL1        0.0282
     32 C          64.0069   82.5652   10.4585 C.3     1  UNL1        0.0029
     33 C          63.6659   84.1735    9.3067 C.3     1  UNL1        0.0029
     34 H          63.9338   81.3910   12.2610 H       1  UNL1        0.1188
     35 H          64.7792   82.3950   11.2354 H       1  UNL1        0.1188
@<TRIPOS>BOND
     1    16    17    1
     2    17    10    1
     3    10    11   ar
     4    11    12   ar
     5    12    13   ar
     6    13     1    1
     7     1     2   ar
     8     2     3   ar
     9     3     4   ar
    10     4    23    1
    11    25    23    1
    12    25    26    1
    13    26    27    1
    14    27    28    1
    15    28    29    1
    16    28    30    1
    17    28    31    1
    18    31    32    1
    19    31    33    1
    20     4     5   ar
    21     5    18    1
    22    18    19   am
    23    18    20    2
    24     5     6   ar
    25     6     7   ar
    26     7     8   ar
    27     8     9   ar
    28    13    14   ar
    29    14    15   ar
    30    15    10   ar
    31     9     1   ar
    32     8     3   ar
    33    31    25    1
    34    23    24    1
    35    30    34    1
    36    30    35    1
    37    19    21    1
    38    19    22    1
@<TRIPOS>MOLECULE
*****
 35 38 0 0 0
SMALL
GASTEIGER

@<TRIPOS>ATOM
      1 C          64.2459   88.6537   14.2567 C.ar    1  UNL1        0.0222
      2 C          64.0594   87.5868   13.2190 C.ar    1  UNL1        0.0220
      3 C          63.5803   86.3454   13.9115 C.ar    1  UNL1        0.0961
      4 C          63.2296   84.9808   13.3967 C.ar    1  UNL1        0.0685
      5 C          62.7694   83.9160   14.3478 C.ar    1  UNL1        0.0885
      6 C          62.6598   84.2157   15.8133 C.ar    1  UNL1        0.1263
      7 N          63.0105   85.5803   16.3281 N.ar    1  UNL1       -0.1633
      8 N          63.4707   86.6452   15.3771 N.ar    1  UNL1       -0.2270
      9 C          63.8821   88.0718   15.5905 C.ar    1  UNL1        0.1005
     10 C          65.6504   92.8617   13.5013 C.ar    1  UNL1        0.2250
     11 C          66.2032   92.0828   14.6579 C.ar    1  UNL1        0.0577
     12 C          65.7350   90.6801   14.9096 C.ar    1  UNL1        0.0064
     13 C          64.7141   90.0563   14.0049 C.ar    1  UNL1        0.0209
     14 C          64.1613   90.8352   12.8483 C.ar    1  UNL1        0.1021
     15 N          64.6295   92.2379   12.5965 N.ar    1  UNL1       -0.2101
     16 C          66.2565   94.7677   11.8432 C.3     1  UNL1        0.2542
     17 O          66.1186   94.2643   13.2494 O.3     1  UNL1       -0.4561
     18 C          62.4187   82.5513   13.8330 C.2     1  UNL1        0.2456
     19 N          62.0928   81.4477   14.7952 N.am    1  UNL1       -0.3252
     20 O          62.3941   82.2903   12.3561 O.2     1  UNL1       -0.2703
     21 H          62.1089   81.6190   15.7646 H       1  UNL1        0.1453
     22 H          61.8626   80.5521   14.4574 H       1  UNL1        0.1453
     23 N          63.3392   84.6810   11.9311 N.pl3   1  UNL1       -0.3327
     24 H          64.0134   84.0401   11.6088 H       1  UNL1        0.1468
     25 C          62.4215   85.3578   10.9565 C.3     1  UNL1        0.0702
     26 C          61.2914   86.2807   11.3045 C.3     1  UNL1        0.0208
     27 C          60.6442   86.7238   10.0260 C.3     1  UNL1        0.0160
     28 C          61.3743   86.0747    8.8877 C.3     1  UNL1        0.0404
     29 C          60.3853   86.8156    8.0375 C.3     1  UNL1        0.0156
     30 N          61.8976   85.5805    7.5717 N.3     1  UNL1       -0.3231
     31 C          62.4727   85.2305    9.4628 C.3     1  UNL1        0.0282
     32 C          62.7664   84.9127    8.0265 C.3     1  UNL1        0.0029
     33 C          63.6325   84.3198    9.7377 C.3     1  UNL1        0.0029
     34 H          61.3434   85.9794    6.8140 H       1  UNL1        0.1188
     35 H          61.8333   84.5630    7.5407 H       1  UNL1        0.1188
@<TRIPOS>BOND
     1    16    17    1
     2    17    10    1
     3    10    11   ar
     4    11    12   ar
     5    12    13   ar
     6    13     1    1
     7     1     2   ar
     8     2     3   ar
     9     3     4   ar
    10     4    23    1
    11    25    23    1
    12    25    26    1
    13    26    27    1
    14    27    28    1
    15    28    29    1
    16    28    30    1
    17    28    31    1
    18    31    32    1
    19    31    33    1
    20     4     5   ar
    21     5    18    1
    22    18    19   am
    23    18    20    2
    24     5     6   ar
    25     6     7   ar
    26     7     8   ar
    27     8     9   ar
    28    13    14   ar
    29    14    15   ar
    30    15    10   ar
    31     9     1   ar
    32     8     3   ar
    33    31    25    1
    34    23    24    1
    35    30    34    1
    36    30    35    1
    37    19    21    1
    38    19    22    1
@<TRIPOS>MOLECULE
*****
 35 38 0 0 0
SMALL
GASTEIGER

@<TRIPOS>ATOM
      1 C          62.8282   89.7003   11.0328 C.ar    1  UNL1        0.0222
      2 C          62.9522   89.5488   12.5200 C.ar    1  UNL1        0.0220
      3 C          63.8804   90.6163   13.0189 C.ar    1  UNL1        0.0961
      4 C          64.3742   90.9544   14.3943 C.ar    1  UNL1        0.0685
      5 C          65.3177   92.1039   14.5908 C.ar    1  UNL1        0.0885
      6 C          65.7674   92.9151   13.4121 C.ar    1  UNL1        0.1263
      7 N          65.2736   92.5770   12.0366 N.ar    1  UNL1       -0.1633
      8 N          64.3301   91.4276   11.8400 N.ar    1  UNL1       -0.2270
      9 C          63.6798   90.8615   10.6126 C.ar    1  UNL1        0.1005
     10 C          60.3387   87.1237    8.3100 C.ar    1  UNL1        0.2250
     11 C          61.5278   86.5405    9.0142 C.ar    1  UNL1        0.0577
     12 C          62.3576   87.3994    9.9219 C.ar    1  UNL1        0.0064
     13 C          61.9984   88.8415   10.1252 C.ar    1  UNL1        0.0209
     14 C          60.8094   89.4247    9.4209 C.ar    1  UNL1        0.1021
     15 N          59.9796   88.5658    8.5133 N.ar    1  UNL1       -0.2101
     16 C          60.1237   85.0753    6.7265 C.3     1  UNL1        0.2542
     17 O          59.5089   86.2649    7.4023 O.3     1  UNL1       -0.4561
     18 C          65.8116   92.4420   15.9663 C.2     1  UNL1        0.2456
     19 N          67.2731   92.6861   16.1995 N.am    1  UNL1       -0.3252
     20 O          64.8439   92.5361   17.1086 O.2     1  UNL1       -0.2703
     21 H          67.9083   92.6244   15.4498 H       1  UNL1        0.1453
     22 H          67.5972   92.9080   17.1022 H       1  UNL1        0.1453
     23 N          63.9246   90.1431   15.5732 N.pl3   1  UNL1       -0.3327
     24 H          63.6047   90.5940   16.3878 H       1  UNL1        0.1468
     25 C          63.9624   88.6449   15.5108 C.3     1  UNL1        0.0702
     26 C          64.6263   87.8233   14.4459 C.3     1  UNL1        0.0208
     27 C          64.4173   86.3759   14.7794 C.3     1  UNL1        0.0160
     28 C          63.6241   86.3029   16.0504 C.3     1  UNL1        0.0404
     29 C          63.7446   84.8205   15.8556 C.3     1  UNL1        0.0156
     30 N          62.8561   85.9201   17.2807 N.3     1  UNL1       -0.3231
     31 C          63.3430   87.7053   16.5025 C.3     1  UNL1        0.0282
     32 C          62.6338   87.0293   17.6383 C.3     1  UNL1        0.0029
     33 C          62.9136   88.9663   17.1920 C.3     1  UNL1        0.0029
     34 H          62.8115   84.9035   17.3510 H       1  UNL1        0.1188
     35 H          61.9108   86.2987   17.2229 H       1  UNL1        0.1188
@<TRIPOS>BOND
     1    16    17    1
     2    17    10    1
     3    10    11   ar
     4    11    12   ar
     5    12    13   ar
     6    13     1    1
     7     1     2   ar
     8     2     3   ar
     9     3     4   ar
    10     4    23    1
    11    25    23    1
    12    25    26    1
    13    26    27    1
    14    27    28    1
    15    28    29    1
    16    28    30    1
    17    28    31    1
    18    31    32    1
    19    31    33    1
    20     4     5   ar
    21     5    18    1
    22    18    19   am
    23    18    20    2
    24     5     6   ar
    25     6     7   ar
    26     7     8   ar
    27     8     9   ar
    28    13    14   ar
    29    14    15   ar
    30    15    10   ar
    31     9     1   ar
    32     8     3   ar
    33    31    25    1
    34    23    24    1
    35    30    34    1
    36    30    35    1
    37    19    21    1
    38    19    22    1
@<TRIPOS>MOLECULE
*****
 35 38 0 0 0
SMALL
GASTEIGER

@<TRIPOS>ATOM
      1 C          62.9379   89.5960   11.6967 C.ar    1  UNL1        0.0222
      2 C          63.5868   90.9250   11.4464 C.ar    1  UNL1        0.0220
      3 C          64.4280   91.2624   12.6417 C.ar    1  UNL1        0.0961
      4 C          65.2948   92.4452   12.9573 C.ar    1  UNL1        0.0685
      5 C          66.0325   92.5074   14.2619 C.ar    1  UNL1        0.0885
      6 C          65.9035   91.3870   15.2507 C.ar    1  UNL1        0.1263
      7 N          65.0366   90.2043   14.9351 N.ar    1  UNL1       -0.1633
      8 N          64.2989   90.1419   13.6306 N.ar    1  UNL1       -0.2270
      9 C          63.3779   89.1120   13.0465 C.ar    1  UNL1        0.1005
     10 C          60.1586   87.4392    8.8905 C.ar    1  UNL1        0.2250
     11 C          61.0920   86.6592    9.7682 C.ar    1  UNL1        0.0577
     12 C          62.0184   87.3782   10.7036 C.ar    1  UNL1        0.0064
     13 C          62.0114   88.8771   10.7613 C.ar    1  UNL1        0.0209
     14 C          61.0781   89.6571    9.8835 C.ar    1  UNL1        0.1021
     15 N          60.1517   88.9381    8.9481 N.ar    1  UNL1       -0.2101
     16 C          59.7575   85.6273    7.0724 C.3     1  UNL1        0.2542
     17 O          59.2322   86.7203    7.9551 O.3     1  UNL1       -0.4561
     18 C          66.8994   93.6903   14.5776 C.2     1  UNL1        0.2456
     19 N          67.9748   93.5759   15.6171 N.am    1  UNL1       -0.3252
     20 O          66.6909   94.9874   13.8537 O.2     1  UNL1       -0.2703
     21 H          68.1116   92.7246   16.0921 H       1  UNL1        0.1453
     22 H          68.5437   94.3522   15.8242 H       1  UNL1        0.1453
     23 N          65.4239   93.5657   11.9684 N.pl3   1  UNL1       -0.3327
     24 H          64.8639   94.3702   12.0601 H       1  UNL1        0.1468
     25 C          66.4063   93.4604   10.8398 C.3     1  UNL1        0.0702
     26 C          67.2633   92.2703   10.5250 C.3     1  UNL1        0.0208
     27 C          68.0908   92.6010    9.3185 C.3     1  UNL1        0.0160
     28 C          67.7453   93.9956    8.8876 C.3     1  UNL1        0.0404
     29 C          68.7584   93.7451    7.8102 C.3     1  UNL1        0.0156
     30 N          67.6115   95.3378    8.2314 N.3     1  UNL1       -0.3231
     31 C          66.7042   94.5267    9.8278 C.3     1  UNL1        0.0282
     32 C          66.7880   95.7580    8.9751 C.3     1  UNL1        0.0029
     33 C          65.6806   95.3152   10.5897 C.3     1  UNL1        0.0029
     34 H          68.2433   95.3901    7.4324 H       1  UNL1        0.1188
     35 H          67.8495   96.0691    8.9015 H       1  UNL1        0.1188
@<TRIPOS>BOND
     1    16    17    1
     2    17    10    1
     3    10    11   ar
     4    11    12   ar
     5    12    13   ar
     6    13     1    1
     7     1     2   ar
     8     2     3   ar
     9     3     4   ar
    10     4    23    1
    11    25    23    1
    12    25    26    1
    13    26    27    1
    14    27    28    1
    15    28    29    1
    16    28    30    1
    17    28    31    1
    18    31    32    1
    19    31    33    1
    20     4     5   ar
    21     5    18    1
    22    18    19   am
    23    18    20    2
    24     5     6   ar
    25     6     7   ar
    26     7     8   ar
    27     8     9   ar
    28    13    14   ar
    29    14    15   ar
    30    15    10   ar
    31     9     1   ar
    32     8     3   ar
    33    31    25    1
    34    23    24    1
    35    30    34    1
    36    30    35    1
    37    19    21    1
    38    19    22    1
@<TRIPOS>MOLECULE
*****
 35 38 0 0 0
SMALL
GASTEIGER

@<TRIPOS>ATOM
      1 C          64.9746   91.6297   13.6004 C.ar    1  UNL1        0.0222
      2 C          64.8460   90.1511   13.3827 C.ar    1  UNL1        0.0220
      3 C          64.2508   89.5503   14.6216 C.ar    1  UNL1        0.0961
      4 C          63.8957   88.1381   14.9813 C.ar    1  UNL1        0.0685
      5 C          63.3015   87.8331   16.3244 C.ar    1  UNL1        0.0885
      6 C          63.0623   88.9402   17.3077 C.ar    1  UNL1        0.1263
      7 N          63.4173   90.3525   16.9479 N.ar    1  UNL1       -0.1633
      8 N          64.0116   90.6575   15.6049 N.ar    1  UNL1       -0.2270
      9 C          64.4589   91.9427   14.9737 C.ar    1  UNL1        0.1005
     10 C          66.6188   94.6042   10.6509 C.ar    1  UNL1        0.2250
     11 C          65.9343   93.3625   10.1614 C.ar    1  UNL1        0.0577
     12 C          65.3862   92.3710   11.1446 C.ar    1  UNL1        0.0064
     13 C          65.5227   92.6212   12.6172 C.ar    1  UNL1        0.0209
     14 C          66.2072   93.8628   13.1068 C.ar    1  UNL1        0.1021
     15 N          66.7552   94.8543   12.1236 N.ar    1  UNL1       -0.2101
     16 C          67.2887   95.2264    8.2191 C.3     1  UNL1        0.2542
     17 O          67.1669   95.5957    9.6678 O.3     1  UNL1       -0.4561
     18 C          62.9464   86.4207   16.6842 C.2     1  UNL1        0.2456
     19 N          63.9961   85.3500   16.6441 N.am    1  UNL1       -0.3252
     20 O          61.5416   86.0792   17.0841 O.2     1  UNL1       -0.2703
     21 H          64.9181   85.5742   16.3817 H       1  UNL1        0.1453
     22 H          63.7631   84.4231   16.8802 H       1  UNL1        0.1453
     23 N          64.1349   87.0308   13.9980 N.pl3   1  UNL1       -0.3327
     24 H          64.8299   86.3565   14.1755 H       1  UNL1        0.1468
     25 C          63.3151   86.9510   12.7444 C.3     1  UNL1        0.0702
     26 C          62.7914   88.1158   11.9578 C.3     1  UNL1        0.0208
     27 C          62.0277   87.5771   10.7846 C.3     1  UNL1        0.0160
     28 C          62.0794   86.0792   10.8461 C.3     1  UNL1        0.0404
     29 C          61.2586   86.1564    9.5930 C.3     1  UNL1        0.0156
     30 N          61.9595   84.5976   10.6457 N.3     1  UNL1       -0.3231
     31 C          62.8750   85.6923   12.0574 C.3     1  UNL1        0.0282
     32 C          62.5888   84.2914   11.6038 C.3     1  UNL1        0.0029
     33 C          63.6108   85.0125   13.1738 C.3     1  UNL1        0.0029
     34 H          61.4113   84.4113    9.8060 H       1  UNL1        0.1188
     35 H          61.4959   84.1816   11.4535 H       1  UNL1        0.1188
@<TRIPOS>BOND
     1    16    17    1
     2    17    10    1
     3    10    11   ar
     4    11    12   ar
     5    12    13   ar
     6    13     1    1
     7     1     2   ar
     8     2     3   ar
     9     3     4   ar
    10     4    23    1
    11    25    23    1
    12    25    26    1
    13    26    27    1
    14    27    28    1
    15    28    29    1
    16    28    30    1
    17    28    31    1
    18    31    32    1
    19    31    33    1
    20     4     5   ar
    21     5    18    1
    22    18    19   am
    23    18    20    2
    24     5     6   ar
    25     6     7   ar
    26     7     8   ar
    27     8     9   ar
    28    13    14   ar
    29    14    15   ar
    30    15    10   ar
    31     9     1   ar
    32     8     3   ar
    33    31    25    1
    34    23    24    1
    35    30    34    1
    36    30    35    1
    37    19    21    1
    38    19    22    1
