@<TRIPOS>MOLECULE
*****
 45 48 0 0 0
SMALL
GASTEIGER

@<TRIPOS>ATOM
      1 N          63.1174   89.8095   12.1777 N.3     1  UNL1       -0.2699
      2 C          63.0039   91.2392   10.0113 C.3     1  UNL1        0.0188
      3 C          63.6701   90.9032   11.3127 C.3     1  UNL1        0.0722
      4 C          62.6972   90.1075   13.5865 C.3     1  UNL1        0.0924
      5 C          63.7157   90.1132   14.6876 C.3     1  UNL1        0.0950
      6 N          64.9955   90.8779   14.5215 N.am    1  UNL1       -0.2706
      7 C          65.3322   91.9914   15.4684 C.2     1  UNL1        0.4021
      8 O          64.3891   92.3404   16.5814 O.2     1  UNL1       -0.2264
      9 H          65.6145   90.6489   13.7910 H       1  UNL1        0.1527
     10 O          66.6119   92.7560   15.3023 O.3     1  UNL1       -0.4263
     11 C          66.6785   93.9075   14.3432 C.3     1  UNL1        0.2729
     12 C          66.5948   93.6593   12.8663 C.ar    1  UNL1        0.1619
     13 N          67.1426   92.4665   12.1402 N.ar    1  UNL1       -0.2257
     14 C          66.8349   92.6303   10.6813 C.ar    1  UNL1        0.1187
     15 C          66.0968   93.9243   10.5057 C.ar    1  UNL1        0.0943
     16 N          65.9484   94.5602   11.8561 N.ar    1  UNL1       -0.3366
     17 H          65.5047   95.4183   12.0461 H       1  UNL1        0.1672
     18 C          63.4546   89.3544   15.9549 C.3     1  UNL1        0.0474
     19 C          63.5834   87.8601   15.9743 C.ar    1  UNL1       -0.0205
     20 C          62.8731   87.0597   17.0255 C.ar    1  UNL1       -0.0042
     21 C          63.0020   85.5654   17.0450 C.ar    1  UNL1       -0.0003
     22 C          63.8411   84.8714   16.0133 C.ar    1  UNL1       -0.0000
     23 C          64.5513   85.6718   14.9621 C.ar    1  UNL1       -0.0003
     24 C          64.4225   87.1662   14.9427 C.ar    1  UNL1       -0.0042
     25 C          62.9848   88.4178   11.6340 C.3     1  UNL1        0.0924
     26 C          61.6614   87.9378   11.1161 C.3     1  UNL1        0.0950
     27 N          60.7794   88.8672   10.3362 N.am    1  UNL1       -0.2706
     28 C          60.3835   88.5227    8.9310 C.2     1  UNL1        0.4020
     29 O          60.8696   87.2490    8.3057 O.2     1  UNL1       -0.2264
     30 H          60.4603   89.7032   10.7466 H       1  UNL1        0.1527
     31 O          59.5015   89.4521    8.1511 O.3     1  UNL1       -0.4280
     32 C          59.2967   89.2347    6.6811 C.3     1  UNL1        0.2550
     33 C          59.1289   90.4107    5.7652 C.ar    1  UNL1        0.0986
     34 C          57.8270   91.0445    5.3736 C.ar    1  UNL1        0.1168
     35 N          58.1269   92.1849    4.4465 N.ar    1  UNL1       -0.2228
     36 C          59.6143   92.2559    4.2652 C.ar    1  UNL1        0.1749
     37 N          60.2335   91.1594    5.0802 N.ar    1  UNL1       -0.3353
     38 H          61.1959   90.9652    5.1527 H       1  UNL1        0.1673
     39 C          61.2200   86.5283   11.3782 C.3     1  UNL1        0.0474
     40 C          62.1803   85.3929   11.1821 C.ar    1  UNL1       -0.0205
     41 C          62.5684   84.5293   12.3455 C.ar    1  UNL1       -0.0042
     42 C          63.5288   83.3939   12.1494 C.ar    1  UNL1       -0.0003
     43 C          64.1011   83.1220   10.7897 C.ar    1  UNL1       -0.0000
     44 C          63.7130   83.9856    9.6263 C.ar    1  UNL1       -0.0003
     45 C          62.7526   85.1211    9.8224 C.ar    1  UNL1       -0.0042
@<TRIPOS>BOND
     1     2     3    1
     2     3     1    1
     3     1    25    1
     4    26    25    1
     5    26    39    1
     6    39    40    1
     7    40    41   ar
     8    41    42   ar
     9    42    43   ar
    10    43    44   ar
    11    44    45   ar
    12    26    27    1
    13    27    28   am
    14    28    29    2
    15    28    31    1
    16    31    32    1
    17    32    33    1
    18    33    34   ar
    19    34    35   ar
    20    35    36   ar
    21    36    37   ar
    22     1     4    1
    23     5     4    1
    24     5    18    1
    25    18    19    1
    26    19    20   ar
    27    20    21   ar
    28    21    22   ar
    29    22    23   ar
    30    23    24   ar
    31     5     6    1
    32     6     7   am
    33     7     8    2
    34     7    10    1
    35    10    11    1
    36    11    12    1
    37    12    13   ar
    38    13    14   ar
    39    14    15   ar
    40    15    16   ar
    41    45    40   ar
    42    37    33   ar
    43    24    19   ar
    44    16    12   ar
    45    27    30    1
    46    37    38    1
    47     6     9    1
    48    16    17    1
@<TRIPOS>MOLECULE
*****
 45 48 0 0 0
SMALL
GASTEIGER

@<TRIPOS>ATOM
      1 N          62.0616   89.5938   12.2685 N.3     1  UNL1       -0.2699
      2 C          59.8392   90.5786   11.3513 C.3     1  UNL1        0.0188
      3 C          60.5627   89.6502   12.2813 C.3     1  UNL1        0.0722
      4 C          62.8602   90.7572   12.7772 C.3     1  UNL1        0.0924
      5 C          63.8875   90.5497   13.8503 C.3     1  UNL1        0.0950
      6 N          65.3357   90.8163   13.5639 N.am    1  UNL1       -0.2706
      7 C          66.0631   91.8919   14.3149 C.2     1  UNL1        0.4021
      8 O          65.3424   92.7009   15.3522 O.2     1  UNL1       -0.2264
      9 H          65.8086   90.2853   12.8831 H       1  UNL1        0.1527
     10 O          67.5111   92.1583   14.0285 O.3     1  UNL1       -0.4263
     11 C          68.1162   91.7013   12.7342 C.3     1  UNL1        0.2729
     12 C          67.8738   92.4815   11.4762 C.ar    1  UNL1        0.1619
     13 N          66.8900   93.6014   11.3090 N.ar    1  UNL1       -0.2257
     14 C          66.9809   94.0908    9.8940 C.ar    1  UNL1        0.1187
     15 C          68.0209   93.2733    9.1867 C.ar    1  UNL1        0.0943
     16 N          68.5728   92.2787   10.1646 N.ar    1  UNL1       -0.3366
     17 H          69.2711   91.6102    9.9783 H       1  UNL1        0.1672
     18 C          63.4667   90.0758   15.2098 C.3     1  UNL1        0.0474
     19 C          63.5848   88.6239   15.5677 C.ar    1  UNL1       -0.0205
     20 C          64.3561   87.6929   14.6799 C.ar    1  UNL1       -0.0042
     21 C          64.4741   86.2411   15.0378 C.ar    1  UNL1       -0.0003
     22 C          63.8208   85.7201   16.2835 C.ar    1  UNL1       -0.0000
     23 C          63.0494   86.6511   17.1713 C.ar    1  UNL1       -0.0003
     24 C          62.9314   88.1031   16.8134 C.ar    1  UNL1       -0.0042
     25 C          62.7618   88.3741   11.7472 C.3     1  UNL1        0.0924
     26 C          62.0630   87.4634   10.7815 C.3     1  UNL1        0.0950
     27 N          61.8585   87.8932    9.3591 N.am    1  UNL1       -0.2706
     28 C          60.4710   87.9944    8.7982 C.2     1  UNL1        0.4020
     29 O          59.2880   87.6659    9.6598 O.2     1  UNL1       -0.2264
     30 H          62.6350   88.1088    8.7936 H       1  UNL1        0.1527
     31 O          60.2666   88.4242    7.3758 O.3     1  UNL1       -0.4280
     32 C          58.9680   89.0498    6.9606 C.3     1  UNL1        0.2550
     33 C          58.9645   90.2078    6.0070 C.ar    1  UNL1        0.0986
     34 C          57.7489   90.8944    5.4584 C.ar    1  UNL1        0.1168
     35 N          58.2090   91.9934    4.5470 N.ar    1  UNL1       -0.2228
     36 C          59.7089   91.9859    4.5324 C.ar    1  UNL1        0.1749
     37 N          60.1758   90.8824    5.4347 N.ar    1  UNL1       -0.3353
     38 H          61.1128   90.6430    5.6190 H       1  UNL1        0.1673
     39 C          61.5687   86.1228   11.2385 C.3     1  UNL1        0.0474
     40 C          62.5019   84.9488   11.2656 C.ar    1  UNL1       -0.0205
     41 C          62.7696   84.2333   12.5566 C.ar    1  UNL1       -0.0042
     42 C          63.7028   83.0592   12.5837 C.ar    1  UNL1       -0.0003
     43 C          64.3682   82.6006   11.3200 C.ar    1  UNL1       -0.0000
     44 C          64.1004   83.3160   10.0292 C.ar    1  UNL1       -0.0003
     45 C          63.1673   84.4902   10.0019 C.ar    1  UNL1       -0.0042
@<TRIPOS>BOND
     1     2     3    1
     2     3     1    1
     3     1    25    1
     4    26    25    1
     5    26    39    1
     6    39    40    1
     7    40    41   ar
     8    41    42   ar
     9    42    43   ar
    10    43    44   ar
    11    44    45   ar
    12    26    27    1
    13    27    28   am
    14    28    29    2
    15    28    31    1
    16    31    32    1
    17    32    33    1
    18    33    34   ar
    19    34    35   ar
    20    35    36   ar
    21    36    37   ar
    22     1     4    1
    23     5     4    1
    24     5    18    1
    25    18    19    1
    26    19    20   ar
    27    20    21   ar
    28    21    22   ar
    29    22    23   ar
    30    23    24   ar
    31     5     6    1
    32     6     7   am
    33     7     8    2
    34     7    10    1
    35    10    11    1
    36    11    12    1
    37    12    13   ar
    38    13    14   ar
    39    14    15   ar
    40    15    16   ar
    41    45    40   ar
    42    37    33   ar
    43    24    19   ar
    44    16    12   ar
    45    27    30    1
    46    37    38    1
    47     6     9    1
    48    16    17    1
@<TRIPOS>MOLECULE
*****
 45 48 0 0 0
SMALL
GASTEIGER

@<TRIPOS>ATOM
      1 N          61.9646   89.3728   12.4760 N.3     1  UNL1       -0.2699
      2 C          60.2371   90.6191   10.9885 C.3     1  UNL1        0.0188
      3 C          60.5407   89.6750   12.1139 C.3     1  UNL1        0.0722
      4 C          62.7505   88.3839   11.6671 C.3     1  UNL1        0.0924
      5 C          62.0395   87.4195   10.7646 C.3     1  UNL1        0.0950
      6 N          61.7824   87.7829    9.3322 N.am    1  UNL1       -0.2706
      7 C          60.3769   87.8266    8.8101 C.2     1  UNL1        0.4021
      8 O          59.2284   87.5069    9.7205 O.2     1  UNL1       -0.2264
      9 H          62.5362   87.9928    8.7346 H       1  UNL1        0.1527
     10 O          60.1199   88.1900    7.3777 O.3     1  UNL1       -0.4263
     11 C          58.8927   88.9707    7.0106 C.3     1  UNL1        0.2729
     12 C          58.9911   90.1100    6.0400 C.ar    1  UNL1        0.1619
     13 N          57.8381   90.8428    5.4207 N.ar    1  UNL1       -0.2257
     14 C          58.3942   91.9023    4.5162 C.ar    1  UNL1        0.1187
     15 C          59.8910   91.8244    4.5766 C.ar    1  UNL1        0.0943
     16 N          60.2599   90.7167    5.5183 N.ar    1  UNL1       -0.3366
     17 H          61.1742   90.4370    5.7529 H       1  UNL1        0.1672
     18 C          61.5857   86.0917   11.2946 C.3     1  UNL1        0.0474
     19 C          62.5314   84.9275   11.3106 C.ar    1  UNL1       -0.0205
     20 C          63.1572   84.4519   10.0330 C.ar    1  UNL1       -0.0042
     21 C          64.1029   83.2878   10.0490 C.ar    1  UNL1       -0.0003
     22 C          64.4230   82.5992   11.3427 C.ar    1  UNL1       -0.0000
     23 C          63.7973   83.0749   12.6203 C.ar    1  UNL1       -0.0003
     24 C          62.8515   84.2390   12.6042 C.ar    1  UNL1       -0.0042
     25 C          62.6026   90.0596   13.6470 C.3     1  UNL1        0.0924
     26 C          64.0954   90.1876   13.7193 C.3     1  UNL1        0.0950
     27 N          64.7897   91.2949   12.9833 N.am    1  UNL1       -0.2706
     28 C          65.4300   92.4165   13.7463 C.2     1  UNL1        0.4020
     29 O          65.3758   92.4308   15.2452 O.2     1  UNL1       -0.2264
     30 H          64.8253   91.2855   11.9995 H       1  UNL1        0.1527
     31 O          66.1243   93.5238   13.0103 O.3     1  UNL1       -0.4280
     32 C          65.8060   93.7802   11.5671 C.3     1  UNL1        0.2550
     33 C          66.8287   93.4864   10.5098 C.ar    1  UNL1        0.0986
     34 C          67.0297   94.2576    9.2390 C.ar    1  UNL1        0.1168
     35 N          68.1552   93.6177    8.4815 N.ar    1  UNL1       -0.2228
     36 C          68.6497   92.4510    9.2841 C.ar    1  UNL1        0.1749
     37 N          67.8299   92.3698   10.5376 N.ar    1  UNL1       -0.3353
     38 H          67.9312   91.7011   11.2530 H       1  UNL1        0.1673
     39 C          64.8938   89.2082   14.5277 C.3     1  UNL1        0.0474
     40 C          64.1933   88.1883   15.3756 C.ar    1  UNL1       -0.0205
     41 C          63.3667   88.6275   16.5478 C.ar    1  UNL1       -0.0042
     42 C          62.6662   87.6076   17.3958 C.ar    1  UNL1       -0.0003
     43 C          62.7922   86.1485   17.0716 C.ar    1  UNL1       -0.0000
     44 C          63.6187   85.7093   15.8995 C.ar    1  UNL1       -0.0003
     45 C          64.3193   86.7292   15.0514 C.ar    1  UNL1       -0.0042
@<TRIPOS>BOND
     1     2     3    1
     2     3     1    1
     3     1    25    1
     4    26    25    1
     5    26    39    1
     6    39    40    1
     7    40    41   ar
     8    41    42   ar
     9    42    43   ar
    10    43    44   ar
    11    44    45   ar
    12    26    27    1
    13    27    28   am
    14    28    29    2
    15    28    31    1
    16    31    32    1
    17    32    33    1
    18    33    34   ar
    19    34    35   ar
    20    35    36   ar
    21    36    37   ar
    22     1     4    1
    23     5     4    1
    24     5    18    1
    25    18    19    1
    26    19    20   ar
    27    20    21   ar
    28    21    22   ar
    29    22    23   ar
    30    23    24   ar
    31     5     6    1
    32     6     7   am
    33     7     8    2
    34     7    10    1
    35    10    11    1
    36    11    12    1
    37    12    13   ar
    38    13    14   ar
    39    14    15   ar
    40    15    16   ar
    41    45    40   ar
    42    37    33   ar
    43    24    19   ar
    44    16    12   ar
    45    27    30    1
    46    37    38    1
    47     6     9    1
    48    16    17    1
@<TRIPOS>MOLECULE
*****
 45 48 0 0 0
SMALL
GASTEIGER

@<TRIPOS>ATOM
      1 N          61.6516   89.2935   12.3413 N.3     1  UNL1       -0.2699
      2 C          59.7950   90.5807   11.0583 C.3     1  UNL1        0.0188
      3 C          60.2075   89.4672   11.9749 C.3     1  UNL1        0.0722
      4 C          62.2613   90.1472   13.4134 C.3     1  UNL1        0.0924
      5 C          63.7423   90.3844   13.4316 C.3     1  UNL1        0.0950
      6 N          64.3040   91.6627   12.8831 N.am    1  UNL1       -0.2706
      7 C          64.3736   91.8758   11.4000 C.2     1  UNL1        0.4021
      8 O          63.8816   90.8108   10.4653 O.2     1  UNL1       -0.2264
      9 H          64.6269   92.3617   13.4966 H       1  UNL1        0.1527
     10 O          64.9352   93.1540   10.8516 O.3     1  UNL1       -0.4263
     11 C          66.1242   93.7927   11.5063 C.3     1  UNL1        0.2729
     12 C          66.6160   93.2832   12.8286 C.ar    1  UNL1        0.1619
     13 N          66.1498   93.7413   14.1787 N.ar    1  UNL1       -0.2257
     14 C          66.9060   92.9674   15.2175 C.ar    1  UNL1        0.1187
     15 C          67.8396   92.0308   14.5093 C.ar    1  UNL1        0.0943
     16 N          67.6603   92.2260   13.0329 N.ar    1  UNL1       -0.3366
     17 H          68.1433   91.7448   12.3227 H       1  UNL1        0.1672
     18 C          64.6617   89.3435   13.9983 C.3     1  UNL1        0.0474
     19 C          64.1505   88.3628   15.0115 C.ar    1  UNL1       -0.0205
     20 C          63.4091   88.8513   16.2206 C.ar    1  UNL1       -0.0042
     21 C          62.8979   87.8705   17.2338 C.ar    1  UNL1       -0.0003
     22 C          63.1280   86.4012   17.0381 C.ar    1  UNL1       -0.0000
     23 C          63.8693   85.9127   15.8291 C.ar    1  UNL1       -0.0003
     24 C          64.3806   86.8935   14.8158 C.ar    1  UNL1       -0.0042
     25 C          62.4860   88.2660   11.6356 C.3     1  UNL1        0.0924
     26 C          61.8665   87.3850   10.5915 C.3     1  UNL1        0.0950
     27 N          61.6726   87.8987    9.1957 N.am    1  UNL1       -0.2706
     28 C          60.3065   87.8902    8.5764 C.2     1  UNL1        0.4020
     29 O          59.1342   87.3679    9.3529 O.2     1  UNL1       -0.2264
     30 H          62.4420   88.2415    8.6860 H       1  UNL1        0.1527
     31 O          60.1126   88.4039    7.1805 O.3     1  UNL1       -0.4280
     32 C          58.8763   89.1783    6.8313 C.3     1  UNL1        0.2550
     33 C          58.9590   90.3325    5.8767 C.ar    1  UNL1        0.0986
     34 C          57.7960   91.0550    5.2640 C.ar    1  UNL1        0.1168
     35 N          58.3373   92.1357    4.3759 N.ar    1  UNL1       -0.2228
     36 C          59.8350   92.0812    4.4397 C.ar    1  UNL1        0.1749
     37 N          60.2192   90.9668    5.3672 N.ar    1  UNL1       -0.3353
     38 H          61.1373   90.6987    5.6006 H       1  UNL1        0.1673
     39 C          61.4409   85.9903   10.9434 C.3     1  UNL1        0.0474
     40 C          62.4720   84.9197   11.1443 C.ar    1  UNL1       -0.0205
     41 C          63.1747   84.3235    9.9607 C.ar    1  UNL1       -0.0042
     42 C          64.2059   83.2529   10.1617 C.ar    1  UNL1       -0.0003
     43 C          64.5344   82.7784   11.5462 C.ar    1  UNL1       -0.0000
     44 C          63.8318   83.3745   12.7298 C.ar    1  UNL1       -0.0003
     45 C          62.8005   84.4452   12.5289 C.ar    1  UNL1       -0.0042
@<TRIPOS>BOND
     1     2     3    1
     2     3     1    1
     3     1    25    1
     4    26    25    1
     5    26    39    1
     6    39    40    1
     7    40    41   ar
     8    41    42   ar
     9    42    43   ar
    10    43    44   ar
    11    44    45   ar
    12    26    27    1
    13    27    28   am
    14    28    29    2
    15    28    31    1
    16    31    32    1
    17    32    33    1
    18    33    34   ar
    19    34    35   ar
    20    35    36   ar
    21    36    37   ar
    22     1     4    1
    23     5     4    1
    24     5    18    1
    25    18    19    1
    26    19    20   ar
    27    20    21   ar
    28    21    22   ar
    29    22    23   ar
    30    23    24   ar
    31     5     6    1
    32     6     7   am
    33     7     8    2
    34     7    10    1
    35    10    11    1
    36    11    12    1
    37    12    13   ar
    38    13    14   ar
    39    14    15   ar
    40    15    16   ar
    41    45    40   ar
    42    37    33   ar
    43    24    19   ar
    44    16    12   ar
    45    27    30    1
    46    37    38    1
    47     6     9    1
    48    16    17    1
@<TRIPOS>MOLECULE
*****
 45 48 0 0 0
SMALL
GASTEIGER

@<TRIPOS>ATOM
      1 N          61.7787   89.9603   11.5108 N.3     1  UNL1       -0.2699
      2 C          63.2490   91.4613    9.9826 C.3     1  UNL1        0.0188
      3 C          63.0213   90.1610   10.6951 C.3     1  UNL1        0.0722
      4 C          61.8758   89.8035   12.9994 C.3     1  UNL1        0.0924
      5 C          63.2205   89.7157   13.6582 C.3     1  UNL1        0.0950
      6 N          63.9856   88.4257   13.6323 N.am    1  UNL1       -0.2706
      7 C          64.1009   87.5970   14.8772 C.2     1  UNL1        0.4021
      8 O          63.4512   88.0582   16.1481 O.2     1  UNL1       -0.2264
      9 H          64.4121   88.1230   12.7982 H       1  UNL1        0.1527
     10 O          64.8660   86.3071   14.8512 O.3     1  UNL1       -0.4263
     11 C          64.2536   85.0603   15.4175 C.3     1  UNL1        0.2729
     12 C          64.1276   83.8326   14.5649 C.ar    1  UNL1        0.1619
     13 N          63.2759   82.6347   14.8644 N.ar    1  UNL1       -0.2257
     14 C          63.4532   81.6490   13.7478 C.ar    1  UNL1        0.1187
     15 C          64.4145   82.2378   12.7581 C.ar    1  UNL1        0.0943
     16 N          64.8313   83.5873   13.2631 N.ar    1  UNL1       -0.3366
     17 H          65.4569   84.2037   12.8183 H       1  UNL1        0.1672
     18 C          63.8002   90.9179   14.3428 C.3     1  UNL1        0.0474
     19 C          65.1825   91.3851   13.9952 C.ar    1  UNL1       -0.0205
     20 C          66.3094   91.1795   14.9636 C.ar    1  UNL1       -0.0042
     21 C          67.6917   91.6467   14.6160 C.ar    1  UNL1       -0.0003
     22 C          67.9472   92.3196   13.2999 C.ar    1  UNL1       -0.0000
     23 C          66.8203   92.5252   12.3315 C.ar    1  UNL1       -0.0003
     24 C          65.4379   92.0579   12.6792 C.ar    1  UNL1       -0.0042
     25 C          60.4388   89.9163   10.8379 C.3     1  UNL1        0.0924
     26 C          60.2109   88.9899    9.6804 C.3     1  UNL1        0.0950
     27 N          60.2391   89.5210    8.2779 N.am    1  UNL1       -0.2706
     28 C          59.3405   88.9283    7.2332 C.2     1  UNL1        0.4020
     29 O          58.4137   87.8045    7.5911 O.2     1  UNL1       -0.2264
     30 H          60.8474   90.2586    8.0429 H       1  UNL1        0.1527
     31 O          59.3687   89.4594    5.8307 O.3     1  UNL1       -0.4280
     32 C          58.9529   90.8741    5.5559 C.3     1  UNL1        0.2550
     33 C          59.6176   91.6516    4.4587 C.ar    1  UNL1        0.0986
     34 C          61.0927   91.7197    4.1952 C.ar    1  UNL1        0.1168
     35 N          61.3107   92.6075    3.0060 N.ar    1  UNL1       -0.2228
     36 C          59.9702   93.0882    2.5345 C.ar    1  UNL1        0.1749
     37 N          58.9238   92.4973    3.4323 N.ar    1  UNL1       -0.3353
     38 H          57.9523   92.6397    3.3606 H       1  UNL1        0.1673
     39 C          59.9548   87.5324    9.9255 C.3     1  UNL1        0.0474
     40 C          61.0782   86.5446    9.8155 C.ar    1  UNL1       -0.0205
     41 C          61.5733   85.8325   11.0394 C.ar    1  UNL1       -0.0042
     42 C          62.6968   84.8447   10.9294 C.ar    1  UNL1       -0.0003
     43 C          63.3252   84.5690    9.5956 C.ar    1  UNL1       -0.0000
     44 C          62.8302   85.2811    8.3717 C.ar    1  UNL1       -0.0003
     45 C          61.7067   86.2689    8.4817 C.ar    1  UNL1       -0.0042
@<TRIPOS>BOND
     1     2     3    1
     2     3     1    1
     3     1    25    1
     4    26    25    1
     5    26    39    1
     6    39    40    1
     7    40    41   ar
     8    41    42   ar
     9    42    43   ar
    10    43    44   ar
    11    44    45   ar
    12    26    27    1
    13    27    28   am
    14    28    29    2
    15    28    31    1
    16    31    32    1
    17    32    33    1
    18    33    34   ar
    19    34    35   ar
    20    35    36   ar
    21    36    37   ar
    22     1     4    1
    23     5     4    1
    24     5    18    1
    25    18    19    1
    26    19    20   ar
    27    20    21   ar
    28    21    22   ar
    29    22    23   ar
    30    23    24   ar
    31     5     6    1
    32     6     7   am
    33     7     8    2
    34     7    10    1
    35    10    11    1
    36    11    12    1
    37    12    13   ar
    38    13    14   ar
    39    14    15   ar
    40    15    16   ar
    41    45    40   ar
    42    37    33   ar
    43    24    19   ar
    44    16    12   ar
    45    27    30    1
    46    37    38    1
    47     6     9    1
    48    16    17    1
@<TRIPOS>MOLECULE
*****
 45 48 0 0 0
SMALL
GASTEIGER

@<TRIPOS>ATOM
      1 N          61.9709   89.4320   11.6630 N.3     1  UNL1       -0.2699
      2 C          59.5062   90.2414   11.8060 C.3     1  UNL1        0.0188
      3 C          60.7931   89.8706   12.4817 C.3     1  UNL1        0.0722
      4 C          63.1777   88.8495   12.3370 C.3     1  UNL1        0.0924
      5 C          63.7831   89.5428   13.5213 C.3     1  UNL1        0.0950
      6 N          64.0558   88.7755   14.7811 N.am    1  UNL1       -0.2706
      7 C          63.0923   88.8503   15.9283 C.2     1  UNL1        0.4021
      8 O          61.8562   89.6925   15.8158 O.2     1  UNL1       -0.2264
      9 H          64.8671   88.2227   14.8549 H       1  UNL1        0.1527
     10 O          63.3650   88.0830   17.1879 O.3     1  UNL1       -0.4263
     11 C          62.8343   86.6890   17.3468 C.3     1  UNL1        0.2729
     12 C          63.1177   85.6546   16.2981 C.ar    1  UNL1        0.1619
     13 N          64.3949   85.5097   15.5250 N.ar    1  UNL1       -0.2257
     14 C          64.2401   84.3490   14.5875 C.ar    1  UNL1        0.1187
     15 C          62.8672   83.7766   14.7813 C.ar    1  UNL1        0.0943
     16 N          62.1735   84.5835   15.8385 N.ar    1  UNL1       -0.3366
     17 H          61.2591   84.4360   16.1721 H       1  UNL1        0.1672
     18 C          64.1159   91.0035   13.4460 C.3     1  UNL1        0.0474
     19 C          65.3363   91.5315   14.1401 C.ar    1  UNL1       -0.0205
     20 C          66.6478   91.5852   13.4140 C.ar    1  UNL1       -0.0042
     21 C          67.8682   92.1132   14.1080 C.ar    1  UNL1       -0.0003
     22 C          67.7773   92.5874   15.5282 C.ar    1  UNL1       -0.0000
     23 C          66.4658   92.5336   16.2543 C.ar    1  UNL1       -0.0003
     24 C          65.2453   92.0056   15.5602 C.ar    1  UNL1       -0.0042
     25 C          61.9419   89.5759   10.1702 C.3     1  UNL1        0.0924
     26 C          60.8916   88.8659    9.3685 C.3     1  UNL1        0.0950
     27 N          60.2609   89.5456    8.1895 N.am    1  UNL1       -0.2706
     28 C          59.3974   88.7624    7.2457 C.2     1  UNL1        0.4020
     29 O          59.1646   87.2993    7.4808 O.2     1  UNL1       -0.2264
     30 H          60.4137   90.5059    8.0351 H       1  UNL1        0.1527
     31 O          58.7667   89.4421    6.0667 O.3     1  UNL1       -0.4280
     32 C          58.8178   90.9364    5.9466 C.3     1  UNL1        0.2550
     33 C          59.5133   91.5717    4.7792 C.ar    1  UNL1        0.0986
     34 C          60.9827   91.5050    4.4854 C.ar    1  UNL1        0.1168
     35 N          61.2390   92.2772    3.2252 N.ar    1  UNL1       -0.2228
     36 C          59.9279   92.8211    2.7402 C.ar    1  UNL1        0.1749
     37 N          58.8614   92.3851    3.7006 N.ar    1  UNL1       -0.3353
     38 H          57.9020   92.5958    3.6346 H       1  UNL1        0.1673
     39 C          60.4721   87.4760    9.7459 C.3     1  UNL1        0.0474
     40 C          61.4883   86.3740    9.7982 C.ar    1  UNL1       -0.0205
     41 C          62.2494   85.9963    8.5620 C.ar    1  UNL1       -0.0042
     42 C          63.2656   84.8943    8.6143 C.ar    1  UNL1       -0.0003
     43 C          63.5208   84.1699    9.9028 C.ar    1  UNL1       -0.0000
     44 C          62.7598   84.5476   11.1390 C.ar    1  UNL1       -0.0003
     45 C          61.7435   85.6497   11.0867 C.ar    1  UNL1       -0.0042
@<TRIPOS>BOND
     1     2     3    1
     2     3     1    1
     3     1    25    1
     4    26    25    1
     5    26    39    1
     6    39    40    1
     7    40    41   ar
     8    41    42   ar
     9    42    43   ar
    10    43    44   ar
    11    44    45   ar
    12    26    27    1
    13    27    28   am
    14    28    29    2
    15    28    31    1
    16    31    32    1
    17    32    33    1
    18    33    34   ar
    19    34    35   ar
    20    35    36   ar
    21    36    37   ar
    22     1     4    1
    23     5     4    1
    24     5    18    1
    25    18    19    1
    26    19    20   ar
    27    20    21   ar
    28    21    22   ar
    29    22    23   ar
    30    23    24   ar
    31     5     6    1
    32     6     7   am
    33     7     8    2
    34     7    10    1
    35    10    11    1
    36    11    12    1
    37    12    13   ar
    38    13    14   ar
    39    14    15   ar
    40    15    16   ar
    41    45    40   ar
    42    37    33   ar
    43    24    19   ar
    44    16    12   ar
    45    27    30    1
    46    37    38    1
    47     6     9    1
    48    16    17    1
@<TRIPOS>MOLECULE
*****
 45 48 0 0 0
SMALL
GASTEIGER

@<TRIPOS>ATOM
      1 N          62.4241   85.9780   11.0713 N.3     1  UNL1       -0.2699
      2 C          62.9139   85.5816    8.5507 C.3     1  UNL1        0.0188
      3 C          62.1790   85.2120    9.8051 C.3     1  UNL1        0.0722
      4 C          62.2314   85.3107   12.4008 C.3     1  UNL1        0.0924
      5 C          63.4208   84.9742   13.2504 C.3     1  UNL1        0.0950
      6 N          63.6768   85.7351   14.5176 N.am    1  UNL1       -0.2706
      7 C          63.1474   85.2187   15.8225 C.2     1  UNL1        0.4021
      8 O          62.3618   83.9414   15.8604 O.2     1  UNL1       -0.2264
      9 H          64.1924   86.5735   14.4927 H       1  UNL1        0.1527
     10 O          63.4034   85.9797   17.0895 O.3     1  UNL1       -0.4263
     11 C          62.7359   87.3036   17.3172 C.3     1  UNL1        0.2729
     12 C          63.2271   88.5247   16.5978 C.ar    1  UNL1        0.1619
     13 N          63.9270   88.5447   15.2713 N.ar    1  UNL1       -0.2257
     14 C          64.2371   89.9726   14.9323 C.ar    1  UNL1        0.1187
     15 C          63.7287   90.8351   16.0493 C.ar    1  UNL1        0.0943
     16 N          63.1045   89.9402   17.0787 N.ar    1  UNL1       -0.3366
     17 H          62.6875   90.2309   17.9218 H       1  UNL1        0.1672
     18 C          64.3543   83.8767   12.8331 C.3     1  UNL1        0.0474
     19 C          63.8043   82.5695   12.3447 C.ar    1  UNL1       -0.0205
     20 C          63.1840   81.6077   13.3144 C.ar    1  UNL1       -0.0042
     21 C          62.6339   80.3005   12.8260 C.ar    1  UNL1       -0.0003
     22 C          62.7042   79.9549   11.3680 C.ar    1  UNL1       -0.0000
     23 C          63.3245   80.9167   10.3984 C.ar    1  UNL1       -0.0003
     24 C          63.8745   82.2240   10.8868 C.ar    1  UNL1       -0.0042
     25 C          62.8619   87.4113   11.0079 C.3     1  UNL1        0.0924
     26 C          61.9380   88.4988   11.4701 C.3     1  UNL1        0.0950
     27 N          62.4756   89.6529   12.2631 N.am    1  UNL1       -0.2706
     28 C          63.1096   90.8160   11.5593 C.2     1  UNL1        0.4020
     29 O          63.2059   90.8249   10.0624 O.2     1  UNL1       -0.2264
     30 H          62.4123   89.6471   13.2456 H       1  UNL1        0.1527
     31 O          63.6472   91.9701   12.3523 O.3     1  UNL1       -0.4280
     32 C          65.1274   92.1296   12.5354 C.3     1  UNL1        0.2550
     33 C          65.8950   93.0706   11.6548 C.ar    1  UNL1        0.0986
     34 C          66.9583   92.6863   10.6691 C.ar    1  UNL1        0.1168
     35 N          67.4545   93.9392   10.0104 N.ar    1  UNL1       -0.2228
     36 C          66.6977   95.0979   10.5890 C.ar    1  UNL1        0.1749
     37 N          65.7339   94.5611   11.6052 N.ar    1  UNL1       -0.3353
     38 H          65.1059   95.0935   12.1450 H       1  UNL1        0.1673
     39 C          60.4764   88.4322   11.1393 C.3     1  UNL1        0.0474
     40 C          60.0356   88.3080    9.7109 C.ar    1  UNL1       -0.0205
     41 C          59.4512   87.0182    9.2158 C.ar    1  UNL1       -0.0042
     42 C          59.0105   86.8940    7.7874 C.ar    1  UNL1       -0.0003
     43 C          59.1541   88.0595    6.8541 C.ar    1  UNL1       -0.0000
     44 C          59.7384   89.3492    7.3492 C.ar    1  UNL1       -0.0003
     45 C          60.1792   89.4735    8.7776 C.ar    1  UNL1       -0.0042
@<TRIPOS>BOND
     1     2     3    1
     2     3     1    1
     3     1    25    1
     4    26    25    1
     5    26    39    1
     6    39    40    1
     7    40    41   ar
     8    41    42   ar
     9    42    43   ar
    10    43    44   ar
    11    44    45   ar
    12    26    27    1
    13    27    28   am
    14    28    29    2
    15    28    31    1
    16    31    32    1
    17    32    33    1
    18    33    34   ar
    19    34    35   ar
    20    35    36   ar
    21    36    37   ar
    22     1     4    1
    23     5     4    1
    24     5    18    1
    25    18    19    1
    26    19    20   ar
    27    20    21   ar
    28    21    22   ar
    29    22    23   ar
    30    23    24   ar
    31     5     6    1
    32     6     7   am
    33     7     8    2
    34     7    10    1
    35    10    11    1
    36    11    12    1
    37    12    13   ar
    38    13    14   ar
    39    14    15   ar
    40    15    16   ar
    41    45    40   ar
    42    37    33   ar
    43    24    19   ar
    44    16    12   ar
    45    27    30    1
    46    37    38    1
    47     6     9    1
    48    16    17    1
@<TRIPOS>MOLECULE
*****
 45 48 0 0 0
SMALL
GASTEIGER

@<TRIPOS>ATOM
      1 N          63.8368   86.9794   15.6450 N.3     1  UNL1       -0.2699
      2 C          62.6130   86.4017   17.8628 C.3     1  UNL1        0.0188
      3 C          63.2904   85.9595   16.5996 C.3     1  UNL1        0.0722
      4 C          63.7759   88.4379   15.9898 C.3     1  UNL1        0.0924
      5 C          63.8355   89.4689   14.9020 C.3     1  UNL1        0.0950
      6 N          65.1145   90.2066   14.6371 N.am    1  UNL1       -0.2706
      7 C          65.3480   91.5508   15.2604 C.2     1  UNL1        0.4021
      8 O          64.3025   92.1574   16.1486 O.2     1  UNL1       -0.2264
      9 H          65.8007   89.8084   14.0541 H       1  UNL1        0.1527
     10 O          66.6269   92.2883   14.9955 O.3     1  UNL1       -0.4263
     11 C          66.5998   93.5988   14.2659 C.3     1  UNL1        0.2729
     12 C          66.6146   93.6227   12.7662 C.ar    1  UNL1        0.1619
     13 N          67.2430   92.5934   11.8742 N.ar    1  UNL1       -0.2257
     14 C          67.0204   93.0147   10.4518 C.ar    1  UNL1        0.1187
     15 C          66.2543   94.3043   10.4649 C.ar    1  UNL1        0.0943
     16 N          66.0035   94.6800   11.8952 N.ar    1  UNL1       -0.3366
     17 H          65.5223   95.4801   12.2075 H       1  UNL1        0.1672
     18 C          62.6163   89.7623   14.0790 C.3     1  UNL1        0.0474
     19 C          62.7570   90.1035   12.6252 C.ar    1  UNL1       -0.0205
     20 C          62.0914   89.2501   11.5866 C.ar    1  UNL1       -0.0042
     21 C          62.2322   89.5913   10.1327 C.ar    1  UNL1       -0.0003
     22 C          63.0386   90.7861    9.7174 C.ar    1  UNL1       -0.0000
     23 C          63.7041   91.6395   10.7560 C.ar    1  UNL1       -0.0003
     24 C          63.5633   91.2982   12.2099 C.ar    1  UNL1       -0.0042
     25 C          64.4442   86.5406   14.3455 C.3     1  UNL1        0.0924
     26 C          63.7784   85.4729   13.5290 C.3     1  UNL1        0.0950
     27 N          62.4956   85.7690   12.8101 N.am    1  UNL1       -0.2706
     28 C          62.3659   85.4575   11.3486 C.2     1  UNL1        0.4020
     29 O          63.5189   84.8500   10.6059 O.2     1  UNL1       -0.2264
     30 H          61.7389   86.1677   13.2975 H       1  UNL1        0.1527
     31 O          61.0832   85.7536   10.6296 O.3     1  UNL1       -0.4280
     32 C          61.1116   86.4451    9.2988 C.3     1  UNL1        0.2550
     33 C          61.3694   85.6564    8.0492 C.ar    1  UNL1        0.0986
     34 C          60.3451   85.2687    7.0242 C.ar    1  UNL1        0.1168
     35 N          61.0393   84.4896    5.9467 N.ar    1  UNL1       -0.2228
     36 C          62.4927   84.3958    6.3057 C.ar    1  UNL1        0.1749
     37 N          62.6967   85.1169    7.6051 N.ar    1  UNL1       -0.3353
     38 H          63.5516   85.2183    8.0827 H       1  UNL1        0.1673
     39 C          64.3954   84.1091   13.4315 C.3     1  UNL1        0.0474
     40 C          63.5235   82.8887   13.4472 C.ar    1  UNL1       -0.0205
     41 C          63.7282   81.8075   12.4277 C.ar    1  UNL1       -0.0042
     42 C          62.8564   80.5871   12.4433 C.ar    1  UNL1       -0.0003
     43 C          61.7798   80.4477   13.4785 C.ar    1  UNL1       -0.0000
     44 C          61.5750   81.5287   14.4979 C.ar    1  UNL1       -0.0003
     45 C          62.4469   82.7493   14.4823 C.ar    1  UNL1       -0.0042
@<TRIPOS>BOND
     1     2     3    1
     2     3     1    1
     3     1    25    1
     4    26    25    1
     5    26    39    1
     6    39    40    1
     7    40    41   ar
     8    41    42   ar
     9    42    43   ar
    10    43    44   ar
    11    44    45   ar
    12    26    27    1
    13    27    28   am
    14    28    29    2
    15    28    31    1
    16    31    32    1
    17    32    33    1
    18    33    34   ar
    19    34    35   ar
    20    35    36   ar
    21    36    37   ar
    22     1     4    1
    23     5     4    1
    24     5    18    1
    25    18    19    1
    26    19    20   ar
    27    20    21   ar
    28    21    22   ar
    29    22    23   ar
    30    23    24   ar
    31     5     6    1
    32     6     7   am
    33     7     8    2
    34     7    10    1
    35    10    11    1
    36    11    12    1
    37    12    13   ar
    38    13    14   ar
    39    14    15   ar
    40    15    16   ar
    41    45    40   ar
    42    37    33   ar
    43    24    19   ar
    44    16    12   ar
    45    27    30    1
    46    37    38    1
    47     6     9    1
    48    16    17    1
@<TRIPOS>MOLECULE
*****
 45 48 0 0 0
SMALL
GASTEIGER

@<TRIPOS>ATOM
      1 N          62.5256   86.0276   10.9679 N.3     1  UNL1       -0.2699
      2 C          62.8430   85.4937    8.4451 C.3     1  UNL1        0.0188
      3 C          62.3680   85.0884    9.8090 C.3     1  UNL1        0.0722
      4 C          62.2995   85.5368   12.3671 C.3     1  UNL1        0.0924
      5 C          63.4636   85.0987   13.2055 C.3     1  UNL1        0.0950
      6 N          63.7646   85.8009   14.4964 N.am    1  UNL1       -0.2706
      7 C          63.0612   85.3895   15.7558 C.2     1  UNL1        0.4021
      8 O          62.0568   84.2758   15.7243 O.2     1  UNL1       -0.2264
      9 H          64.4238   86.5318   14.5171 H       1  UNL1        0.1527
     10 O          63.3622   86.0917   17.0466 O.3     1  UNL1       -0.4263
     11 C          62.7591   87.4362   17.3274 C.3     1  UNL1        0.2729
     12 C          63.2664   88.6508   16.6082 C.ar    1  UNL1        0.1619
     13 N          63.9929   88.6591   15.2959 N.ar    1  UNL1       -0.2257
     14 C          64.3118   90.0838   14.9516 C.ar    1  UNL1        0.1187
     15 C          63.7823   90.9560   16.0511 C.ar    1  UNL1        0.0943
     16 N          63.1362   90.0703   17.0749 N.ar    1  UNL1       -0.3366
     17 H          62.7028   90.3684   17.9071 H       1  UNL1        0.1672
     18 C          64.3267   83.9584   12.7531 C.3     1  UNL1        0.0474
     19 C          63.7331   82.5921   12.5777 C.ar    1  UNL1       -0.0205
     20 C          63.6088   81.9989   11.2056 C.ar    1  UNL1       -0.0042
     21 C          63.0152   80.6326   11.0301 C.ar    1  UNL1       -0.0003
     22 C          62.5459   79.8594   12.2268 C.ar    1  UNL1       -0.0000
     23 C          62.6702   80.4526   13.5989 C.ar    1  UNL1       -0.0003
     24 C          63.2639   81.8190   13.7743 C.ar    1  UNL1       -0.0042
     25 C          62.9093   87.4575   10.7274 C.3     1  UNL1        0.0924
     26 C          62.1045   88.5637   11.3427 C.3     1  UNL1        0.0950
     27 N          62.7740   89.5806   12.2188 N.am    1  UNL1       -0.2706
     28 C          63.3042   90.8510   11.6231 C.2     1  UNL1        0.4020
     29 O          63.1648   91.1046   10.1513 O.2     1  UNL1       -0.2264
     30 H          62.8655   89.4142   13.1848 H       1  UNL1        0.1527
     31 O          63.9737   91.8679   12.4992 O.3     1  UNL1       -0.4280
     32 C          65.3498   92.3598   12.1607 C.3     1  UNL1        0.2550
     33 C          66.3617   92.5648   13.2489 C.ar    1  UNL1        0.0986
     34 C          67.7752   92.0628   13.2443 C.ar    1  UNL1        0.1168
     35 N          68.4250   92.4955   14.5252 N.ar    1  UNL1       -0.2228
     36 C          67.4129   93.2650   15.3214 C.ar    1  UNL1        0.1749
     37 N          66.1378   93.3078   14.5325 N.ar    1  UNL1       -0.3353
     38 H          65.3009   93.7465   14.8088 H       1  UNL1        0.1673
     39 C          60.6299   88.6529   11.0819 C.3     1  UNL1        0.0474
     40 C          60.0953   88.3979    9.7039 C.ar    1  UNL1       -0.0205
     41 C          60.1616   89.4754    8.6624 C.ar    1  UNL1       -0.0042
     42 C          59.6269   89.2204    7.2843 C.ar    1  UNL1       -0.0003
     43 C          59.0259   87.8879    6.9477 C.ar    1  UNL1       -0.0000
     44 C          58.9596   86.8105    7.9891 C.ar    1  UNL1       -0.0003
     45 C          59.4943   87.0654    9.3672 C.ar    1  UNL1       -0.0042
@<TRIPOS>BOND
     1     2     3    1
     2     3     1    1
     3     1    25    1
     4    26    25    1
     5    26    39    1
     6    39    40    1
     7    40    41   ar
     8    41    42   ar
     9    42    43   ar
    10    43    44   ar
    11    44    45   ar
    12    26    27    1
    13    27    28   am
    14    28    29    2
    15    28    31    1
    16    31    32    1
    17    32    33    1
    18    33    34   ar
    19    34    35   ar
    20    35    36   ar
    21    36    37   ar
    22     1     4    1
    23     5     4    1
    24     5    18    1
    25    18    19    1
    26    19    20   ar
    27    20    21   ar
    28    21    22   ar
    29    22    23   ar
    30    23    24   ar
    31     5     6    1
    32     6     7   am
    33     7     8    2
    34     7    10    1
    35    10    11    1
    36    11    12    1
    37    12    13   ar
    38    13    14   ar
    39    14    15   ar
    40    15    16   ar
    41    45    40   ar
    42    37    33   ar
    43    24    19   ar
    44    16    12   ar
    45    27    30    1
    46    37    38    1
    47     6     9    1
    48    16    17    1
