@<TRIPOS>MOLECULE
*****
 20 22 0 0 0
SMALL
GASTEIGER

@<TRIPOS>ATOM
      1 C          65.0460   92.0668   11.5964 C.ar    1  UNL1        0.0253
      2 C          63.8460   91.5068   10.8920 C.ar    1  UNL1        0.0993
      3 N          62.9241   90.5678   11.6120 N.ar    1  UNL1       -0.2423
      4 C          63.2024   90.1888   13.0364 C.ar    1  UNL1        0.0989
      5 C          64.4025   90.7488   13.7408 C.ar    1  UNL1        0.0208
      6 C          65.3243   91.6877   13.0208 C.ar    1  UNL1        0.0067
      7 C          66.9678   95.0320    9.9902 C.ar    1  UNL1        0.0230
      8 C          67.8055   93.8695    9.5466 C.ar    1  UNL1        0.0040
      9 C          67.1875   92.6172   10.0943 C.ar    1  UNL1        0.0067
     10 C          65.9680   93.0058   10.8764 C.ar    1  UNL1        0.0307
     11 S          65.8321   94.4982   10.8120 S.2     1  UNL1       -0.0899
     12 N          67.8103   96.8555    8.3425 N.3     1  UNL1       -0.3170
     13 C          67.2212   96.4750    9.6684 C.3     1  UNL1        0.0987
     14 H          67.9134   97.8692    8.2946 H       1  UNL1        0.1192
     15 H          67.1936   96.5407    7.5935 H       1  UNL1        0.1192
     16 C          66.5244   92.2478   13.7252 C.ar    1  UNL1        0.0409
     17 C          66.5169   93.3604   14.7311 C.ar    1  UNL1        0.0438
     18 C          67.9306   93.5937   15.1749 C.ar    1  UNL1        0.1798
     19 O          68.8120   92.6253   14.4432 O.2     1  UNL1       -0.4473
     20 C          67.9429   91.7934   13.5472 C.ar    1  UNL1        0.1797
@<TRIPOS>BOND
     1    12    13    1
     2    13     7    1
     3     7     8   ar
     4     8     9   ar
     5     9    10   ar
     6    10     1    1
     7     1     2   ar
     8     2     3   ar
     9     3     4   ar
    10     4     5   ar
    11     5     6   ar
    12     6    16    1
    13    16    17   ar
    14    17    18   ar
    15    18    19   ar
    16    19    20   ar
    17    10    11   ar
    18    11     7   ar
    19     6     1   ar
    20    20    16   ar
    21    12    14    1
    22    12    15    1
@<TRIPOS>MOLECULE
*****
 20 22 0 0 0
SMALL
GASTEIGER

@<TRIPOS>ATOM
      1 C          64.3354   90.5694   13.3551 C.ar    1  UNL1        0.0253
      2 C          65.4509   91.5501   13.5641 C.ar    1  UNL1        0.0993
      3 N          65.8139   92.5162   12.4756 N.ar    1  UNL1       -0.2423
      4 C          65.0613   92.5015   11.1781 C.ar    1  UNL1        0.0989
      5 C          63.9458   91.5208   10.9692 C.ar    1  UNL1        0.0208
      6 C          63.5828   90.5547   12.0577 C.ar    1  UNL1        0.0067
      7 C          63.7189   87.5568   15.7237 C.ar    1  UNL1        0.0230
      8 C          63.1085   88.6764   16.5138 C.ar    1  UNL1        0.0040
      9 C          63.2652   89.9411   15.7227 C.ar    1  UNL1        0.0067
     10 C          63.9723   89.6032   14.4437 C.ar    1  UNL1        0.0307
     11 S          64.2527   88.1297   14.4443 S.2     1  UNL1       -0.0899
     12 N          64.7321   85.1799   15.4526 N.3     1  UNL1       -0.3170
     13 C          63.7839   86.1172   16.1400 C.3     1  UNL1        0.0987
     14 H          64.6442   84.2486   15.8594 H       1  UNL1        0.1192
     15 H          65.6880   85.5146   15.5729 H       1  UNL1        0.1192
     16 C          62.4672   89.5739   11.8487 C.ar    1  UNL1        0.0409
     17 C          62.5942   88.2123   11.2325 C.ar    1  UNL1        0.0438
     18 C          61.2343   87.5794   11.2223 C.ar    1  UNL1        0.1798
     19 O          60.2667   88.5500   11.8322 O.2     1  UNL1       -0.4473
     20 C          61.0288   89.7827   12.2194 C.ar    1  UNL1        0.1797
@<TRIPOS>BOND
     1    12    13    1
     2    13     7    1
     3     7     8   ar
     4     8     9   ar
     5     9    10   ar
     6    10     1    1
     7     1     2   ar
     8     2     3   ar
     9     3     4   ar
    10     4     5   ar
    11     5     6   ar
    12     6    16    1
    13    16    17   ar
    14    17    18   ar
    15    18    19   ar
    16    19    20   ar
    17    10    11   ar
    18    11     7   ar
    19     6     1   ar
    20    20    16   ar
    21    12    14    1
    22    12    15    1
@<TRIPOS>MOLECULE
*****
 20 22 0 0 0
SMALL
GASTEIGER

@<TRIPOS>ATOM
      1 C          60.8150   86.7403    9.0138 C.ar    1  UNL1        0.0253
      2 C          60.1013   86.1345    7.8419 C.ar    1  UNL1        0.0993
      3 N          59.2357   86.9912    6.9663 N.ar    1  UNL1       -0.2423
      4 C          59.0839   88.4538    7.2626 C.ar    1  UNL1        0.0989
      5 C          59.7976   89.0596    8.4346 C.ar    1  UNL1        0.0208
      6 C          60.6632   88.2028    9.3102 C.ar    1  UNL1        0.0067
      7 C          63.3705   84.3069   10.6306 C.ar    1  UNL1        0.0230
      8 C          62.6547   84.8234   11.8435 C.ar    1  UNL1        0.0040
      9 C          61.6104   85.7978   11.3854 C.ar    1  UNL1        0.0067
     10 C          61.6806   85.8835    9.8895 C.ar    1  UNL1        0.0307
     11 S          62.7685   84.9621    9.4230 S.2     1  UNL1       -0.0899
     12 N          64.9506   82.6920   11.9134 N.3     1  UNL1       -0.3170
     13 C          64.4915   83.3102   10.6261 C.3     1  UNL1        0.0987
     14 H          65.7145   82.0429   11.7254 H       1  UNL1        0.1192
     15 H          64.1751   82.1888   12.3444 H       1  UNL1        0.1192
     16 C          61.3770   88.8086   10.4822 C.ar    1  UNL1        0.0409
     17 C          62.8339   89.1604   10.5415 C.ar    1  UNL1        0.0438
     18 C          63.1165   89.7382   11.8967 C.ar    1  UNL1        0.1798
     19 O          61.8341   89.7435   12.6749 O.2     1  UNL1       -0.4473
     20 C          60.7591   89.1690   11.8007 C.ar    1  UNL1        0.1797
@<TRIPOS>BOND
     1    12    13    1
     2    13     7    1
     3     7     8   ar
     4     8     9   ar
     5     9    10   ar
     6    10     1    1
     7     1     2   ar
     8     2     3   ar
     9     3     4   ar
    10     4     5   ar
    11     5     6   ar
    12     6    16    1
    13    16    17   ar
    14    17    18   ar
    15    18    19   ar
    16    19    20   ar
    17    10    11   ar
    18    11     7   ar
    19     6     1   ar
    20    20    16   ar
    21    12    14    1
    22    12    15    1
@<TRIPOS>MOLECULE
*****
 20 22 0 0 0
SMALL
GASTEIGER

@<TRIPOS>ATOM
      1 C          63.9948   90.9453   12.1547 C.ar    1  UNL1        0.0253
      2 C          64.4885   91.9164   11.1236 C.ar    1  UNL1        0.0993
      3 N          65.6642   92.7976   11.4253 N.ar    1  UNL1       -0.2423
      4 C          66.3463   92.7076   12.7583 C.ar    1  UNL1        0.0989
      5 C          65.8527   91.7366   13.7894 C.ar    1  UNL1        0.0208
      6 C          64.6769   90.8554   13.4876 C.ar    1  UNL1        0.0067
      7 C          60.5522   89.2089   11.7086 C.ar    1  UNL1        0.0230
      8 C          61.4672   88.2072   11.0685 C.ar    1  UNL1        0.0040
      9 C          62.8681   88.7358   11.1578 C.ar    1  UNL1        0.0067
     10 C          62.8190   90.0641   11.8529 C.ar    1  UNL1        0.0307
     11 S          61.3877   90.3565   12.1933 S.2     1  UNL1       -0.0899
     12 N          58.4623   88.5969   13.1255 N.3     1  UNL1       -0.3170
     13 C          59.0632   89.0847   11.8406 C.3     1  UNL1        0.0987
     14 H          57.4462   88.5750   13.0389 H       1  UNL1        0.1192
     15 H          58.7254   89.2259   13.8842 H       1  UNL1        0.1192
     16 C          64.1832   89.8843   14.5188 C.ar    1  UNL1        0.0409
     17 C          63.4546   90.2344   15.7823 C.ar    1  UNL1        0.0438
     18 C          63.1525   88.9591   16.5118 C.ar    1  UNL1        0.1798
     19 O          63.6944   87.8206   15.6991 O.2     1  UNL1       -0.4473
     20 C          64.3314   88.3925   14.4673 C.ar    1  UNL1        0.1797
@<TRIPOS>BOND
     1    12    13    1
     2    13     7    1
     3     7     8   ar
     4     8     9   ar
     5     9    10   ar
     6    10     1    1
     7     1     2   ar
     8     2     3   ar
     9     3     4   ar
    10     4     5   ar
    11     5     6   ar
    12     6    16    1
    13    16    17   ar
    14    17    18   ar
    15    18    19   ar
    16    19    20   ar
    17    10    11   ar
    18    11     7   ar
    19     6     1   ar
    20    20    16   ar
    21    12    14    1
    22    12    15    1
@<TRIPOS>MOLECULE
*****
 20 22 0 0 0
SMALL
GASTEIGER

@<TRIPOS>ATOM
      1 C          63.0851   86.2161   12.2624 C.ar    1  UNL1        0.0253
      2 C          63.2820   87.4977   13.0165 C.ar    1  UNL1        0.0993
      3 N          64.0571   87.5007   14.3007 N.ar    1  UNL1       -0.2423
      4 C          64.6352   86.2221   14.8308 C.ar    1  UNL1        0.0989
      5 C          64.4382   84.9405   14.0768 C.ar    1  UNL1        0.0208
      6 C          63.6632   84.9376   12.7925 C.ar    1  UNL1        0.0067
      7 C          60.5883   86.6342    9.3201 C.ar    1  UNL1        0.0230
      8 C          61.6464   85.7826    8.6836 C.ar    1  UNL1        0.0040
      9 C          62.7105   85.5223    9.7083 C.ar    1  UNL1        0.0067
     10 C          62.3100   86.2131   10.9781 C.ar    1  UNL1        0.0307
     11 S          60.9984   86.9003   10.7382 S.2     1  UNL1       -0.0899
     12 N          58.7239   86.3500    7.5332 N.3     1  UNL1       -0.3170
     13 C          59.3393   87.1323    8.6553 C.3     1  UNL1        0.0987
     14 H          57.8876   86.8310    7.2020 H       1  UNL1        0.1192
     15 H          58.4716   85.4193    7.8658 H       1  UNL1        0.1192
     16 C          63.4662   83.6559   12.0384 C.ar    1  UNL1        0.0409
     17 C          64.3164   83.1591   10.9069 C.ar    1  UNL1        0.0438
     18 C          63.7600   81.8423   10.4525 C.ar    1  UNL1        0.1798
     19 O          62.5660   81.5252   11.3033 O.2     1  UNL1       -0.4473
     20 C          62.3844   82.6461   12.2834 C.ar    1  UNL1        0.1797
@<TRIPOS>BOND
     1    12    13    1
     2    13     7    1
     3     7     8   ar
     4     8     9   ar
     5     9    10   ar
     6    10     1    1
     7     1     2   ar
     8     2     3   ar
     9     3     4   ar
    10     4     5   ar
    11     5     6   ar
    12     6    16    1
    13    16    17   ar
    14    17    18   ar
    15    18    19   ar
    16    19    20   ar
    17    10    11   ar
    18    11     7   ar
    19     6     1   ar
    20    20    16   ar
    21    12    14    1
    22    12    15    1
@<TRIPOS>MOLECULE
*****
 20 22 0 0 0
SMALL
GASTEIGER

@<TRIPOS>ATOM
      1 C          63.3337   82.5884   13.7565 C.ar    1  UNL1        0.0253
      2 C          63.4364   81.3050   14.5261 C.ar    1  UNL1        0.0993
      3 N          63.0953   80.0036   13.8629 N.ar    1  UNL1       -0.2423
      4 C          62.6515   79.9856   12.4302 C.ar    1  UNL1        0.0989
      5 C          62.5487   81.2690   11.6606 C.ar    1  UNL1        0.0208
      6 C          62.8899   82.5704   12.3238 C.ar    1  UNL1        0.0067
      7 C          63.6008   85.8226   15.8860 C.ar    1  UNL1        0.0230
      8 C          64.7989   85.9629   14.9944 C.ar    1  UNL1        0.0040
      9 C          64.8446   84.7684   14.0882 C.ar    1  UNL1        0.0067
     10 C          63.6749   83.8900   14.4197 C.ar    1  UNL1        0.0307
     11 S          62.9061   84.5415   15.5308 S.2     1  UNL1       -0.0899
     12 N          62.0622   86.4329   17.8886 N.3     1  UNL1       -0.3170
     13 C          63.1726   86.7931   16.9466 C.3     1  UNL1        0.0987
     14 H          61.9045   87.2030   18.5385 H       1  UNL1        0.1192
     15 H          62.3174   85.5945   18.4103 H       1  UNL1        0.1192
     16 C          62.7872   83.8540   11.5543 C.ar    1  UNL1        0.0409
     17 C          62.0612   85.0904   11.9948 C.ar    1  UNL1        0.0438
     18 C          62.2178   86.1269   10.9219 C.ar    1  UNL1        0.1798
     19 O          63.0406   85.5311    9.8183 O.2     1  UNL1       -0.4473
     20 C          63.3925   84.1263   10.2091 C.ar    1  UNL1        0.1797
@<TRIPOS>BOND
     1    12    13    1
     2    13     7    1
     3     7     8   ar
     4     8     9   ar
     5     9    10   ar
     6    10     1    1
     7     1     2   ar
     8     2     3   ar
     9     3     4   ar
    10     4     5   ar
    11     5     6   ar
    12     6    16    1
    13    16    17   ar
    14    17    18   ar
    15    18    19   ar
    16    19    20   ar
    17    10    11   ar
    18    11     7   ar
    19     6     1   ar
    20    20    16   ar
    21    12    14    1
    22    12    15    1
@<TRIPOS>MOLECULE
*****
 20 22 0 0 0
SMALL
GASTEIGER

@<TRIPOS>ATOM
      1 C          62.7446   86.0859   11.1136 C.ar    1  UNL1        0.0253
      2 C          63.0667   86.8706   12.3507 C.ar    1  UNL1        0.0993
      3 N          62.8149   88.3488   12.3878 N.ar    1  UNL1       -0.2423
      4 C          62.2409   89.0423   11.1879 C.ar    1  UNL1        0.0989
      5 C          61.9188   88.2575    9.9509 C.ar    1  UNL1        0.0208
      6 C          62.1706   86.7793    9.9137 C.ar    1  UNL1        0.0067
      7 C          63.0093   82.2527   11.6639 C.ar    1  UNL1        0.0230
      8 C          63.7586   82.4128   10.3743 C.ar    1  UNL1        0.0040
      9 C          63.7506   83.8682   10.0113 C.ar    1  UNL1        0.0067
     10 C          62.9964   84.6076   11.0764 C.ar    1  UNL1        0.0307
     11 S          62.5383   83.6091   12.0978 S.2     1  UNL1       -0.0899
     12 N          63.0923   80.8567   13.8535 N.3     1  UNL1       -0.3170
     13 C          62.7726   80.9627   12.3918 C.3     1  UNL1        0.0987
     14 H          62.8712   79.9169   14.1825 H       1  UNL1        0.1192
     15 H          62.5386   81.5378   14.3729 H       1  UNL1        0.1192
     16 C          61.8485   85.9944    8.6766 C.ar    1  UNL1        0.0409
     17 C          62.8369   85.2791    7.8040 C.ar    1  UNL1        0.0438
     18 C          62.0807   84.6297    6.6831 C.ar    1  UNL1        0.1798
     19 O          60.6249   84.9437    6.8630 O.2     1  UNL1       -0.4473
     20 C          60.4815   85.7871    8.0950 C.ar    1  UNL1        0.1797
@<TRIPOS>BOND
     1    12    13    1
     2    13     7    1
     3     7     8   ar
     4     8     9   ar
     5     9    10   ar
     6    10     1    1
     7     1     2   ar
     8     2     3   ar
     9     3     4   ar
    10     4     5   ar
    11     5     6   ar
    12     6    16    1
    13    16    17   ar
    14    17    18   ar
    15    18    19   ar
    16    19    20   ar
    17    10    11   ar
    18    11     7   ar
    19     6     1   ar
    20    20    16   ar
    21    12    14    1
    22    12    15    1
@<TRIPOS>MOLECULE
*****
 20 22 0 0 0
SMALL
GASTEIGER

@<TRIPOS>ATOM
      1 C          66.3298   92.7035   13.1435 C.ar    1  UNL1        0.0253
      2 C          67.1402   93.2290   14.2911 C.ar    1  UNL1        0.0993
      3 N          66.7274   92.9269   15.7012 N.ar    1  UNL1       -0.2423
      4 C          65.5043   92.0993   15.9636 C.ar    1  UNL1        0.0989
      5 C          64.6939   91.5738   14.8160 C.ar    1  UNL1        0.0208
      6 C          65.1066   91.8759   13.4060 C.ar    1  UNL1        0.0067
      7 C          67.0324   94.1349    9.6047 C.ar    1  UNL1        0.0230
      8 C          67.7231   92.8059    9.5222 C.ar    1  UNL1        0.0040
      9 C          67.5440   92.1080   10.8378 C.ar    1  UNL1        0.0067
     10 C          66.7426   93.0056   11.7334 C.ar    1  UNL1        0.0307
     11 S          66.4264   94.2583   10.9713 S.2     1  UNL1       -0.0899
     12 N          67.8078   96.3958    8.5864 N.3     1  UNL1       -0.3170
     13 C          66.9603   95.1604    8.5124 C.3     1  UNL1        0.0987
     14 H          67.6328   96.9777    7.7671 H       1  UNL1        0.1192
     15 H          68.7926   96.1315    8.6116 H       1  UNL1        0.1192
     16 C          64.2962   91.3504   12.2583 C.ar    1  UNL1        0.0409
     17 C          64.0795   92.0391   10.9435 C.ar    1  UNL1        0.0438
     18 C          63.2096   91.1583   10.0966 C.ar    1  UNL1        0.1798
     19 O          62.8887   89.9250   10.8879 O.2     1  UNL1       -0.4473
     20 C          63.5602   90.0438   12.2239 C.ar    1  UNL1        0.1797
@<TRIPOS>BOND
     1    12    13    1
     2    13     7    1
     3     7     8   ar
     4     8     9   ar
     5     9    10   ar
     6    10     1    1
     7     1     2   ar
     8     2     3   ar
     9     3     4   ar
    10     4     5   ar
    11     5     6   ar
    12     6    16    1
    13    16    17   ar
    14    17    18   ar
    15    18    19   ar
    16    19    20   ar
    17    10    11   ar
    18    11     7   ar
    19     6     1   ar
    20    20    16   ar
    21    12    14    1
    22    12    15    1
@<TRIPOS>MOLECULE
*****
 20 22 0 0 0
SMALL
GASTEIGER

@<TRIPOS>ATOM
      1 C          60.8090   88.4150    9.2879 C.ar    1  UNL1        0.0253
      2 C          59.9064   89.2444    8.4234 C.ar    1  UNL1        0.0993
      3 N          59.0090   88.5801    7.4218 N.ar    1  UNL1       -0.2423
      4 C          59.0141   87.0864    7.2847 C.ar    1  UNL1        0.0989
      5 C          59.9167   86.2570    8.1492 C.ar    1  UNL1        0.0208
      6 C          60.8142   86.9213    9.1508 C.ar    1  UNL1        0.0067
      7 C          62.6757   89.8166   12.3890 C.ar    1  UNL1        0.0230
      8 C          63.4997   90.3865   11.2727 C.ar    1  UNL1        0.0040
      9 C          62.9008   89.9308    9.9751 C.ar    1  UNL1        0.0067
     10 C          61.7066   89.0793   10.2896 C.ar    1  UNL1        0.0307
     11 S          61.5675   89.0087   11.7814 S.2     1  UNL1       -0.0899
     12 N          63.4605   91.3259   14.3527 N.3     1  UNL1       -0.3170
     13 C          62.9174   90.0191   13.8555 C.3     1  UNL1        0.0987
     14 H          63.5615   91.2882   15.3670 H       1  UNL1        0.1192
     15 H          62.8185   92.0781   14.1027 H       1  UNL1        0.1192
     16 C          61.7169   86.0919   10.0153 C.ar    1  UNL1        0.0409
     17 C          61.5965   85.9136   11.4998 C.ar    1  UNL1        0.0438
     18 C          62.7036   85.0067   11.9490 C.ar    1  UNL1        0.1798
     19 O          63.5082   84.6245   10.7421 O.2     1  UNL1       -0.4473
     20 C          62.8984   85.2952    9.5471 C.ar    1  UNL1        0.1797
@<TRIPOS>BOND
     1    12    13    1
     2    13     7    1
     3     7     8   ar
     4     8     9   ar
     5     9    10   ar
     6    10     1    1
     7     1     2   ar
     8     2     3   ar
     9     3     4   ar
    10     4     5   ar
    11     5     6   ar
    12     6    16    1
    13    16    17   ar
    14    17    18   ar
    15    18    19   ar
    16    19    20   ar
    17    10    11   ar
    18    11     7   ar
    19     6     1   ar
    20    20    16   ar
    21    12    14    1
    22    12    15    1
