@<TRIPOS>MOLECULE
*****
 36 38 0 0 0
SMALL
GASTEIGER

@<TRIPOS>ATOM
      1 C          64.7804   91.2509   13.0364 C.ar    1  UNL1       -0.0185
      2 C          64.1368   91.5071   11.7059 C.ar    1  UNL1       -0.0041
      3 C          64.5205   92.7178   10.9078 C.ar    1  UNL1        0.0057
      4 C          65.5478   93.6724   11.4402 C.ar    1  UNL1        0.0696
      5 C          66.1914   93.4163   12.7706 C.ar    1  UNL1        0.0095
      6 C          65.8077   92.2055   13.5688 C.ar    1  UNL1        0.0677
      7 C          63.2458   86.4079   16.2286 C.2     1  UNL1        0.2497
      8 O          62.9572   86.5367   17.6949 O.2     1  UNL1       -0.2699
      9 N          63.6294   87.6187   15.4305 N.am    1  UNL1       -0.2760
     10 C          63.7245   88.9582   16.0988 C.3     1  UNL1        0.0940
     11 C          64.1082   90.1690   15.3008 C.3     1  UNL1        0.0259
     12 C          64.3968   90.0402   13.8344 C.3     1  UNL1        0.0257
     13 C          64.3017   88.7007   13.1661 C.3     1  UNL1        0.0259
     14 C          63.9180   87.4899   13.9642 C.3     1  UNL1        0.0940
     15 C          64.3782   84.4309   14.9799 C.ar    1  UNL1        0.0728
     16 C          64.2830   83.0914   14.3117 C.ar    1  UNL1        0.0104
     17 C          62.9604   82.3893   14.2238 C.ar    1  UNL1        0.0007
     18 C          61.7329   83.0268   14.8041 C.ar    1  UNL1        0.0002
     19 C          61.8280   84.3663   15.4724 C.ar    1  UNL1        0.0052
     20 C          63.1507   85.0683   15.5603 C.ar    1  UNL1        0.0632
     21 N          67.0235   85.8350   15.1558 N.1     1  UNL1       -0.1908
     22 C          65.7008   85.1329   15.0678 C.1     1  UNL1        0.1006
     23 C          65.9314   94.8831   10.6422 C.2     1  UNL1        0.3078
     24 O          66.0780   96.2129   11.3204 O.2     1  UNL1       -0.2516
     25 N          66.1685   94.7640    9.1658 N.am    1  UNL1       -0.1708
     26 H          66.0723   93.8912    8.7206 H       1  UNL1        0.2545
     27 C          66.5522   95.9747    8.3677 C.2     1  UNL1        0.3751
     28 N          67.7668   96.7690    8.7469 N.pl3   1  UNL1       -0.1313
     29 N          65.7212   96.3913    7.1904 N.pl3   1  UNL1       -0.2906
     30 H          68.3123   96.4956    9.5196 H       1  UNL1        0.3060
     31 H          64.9239   95.8700    6.9415 H       1  UNL1        0.2545
     32 H          65.9730   97.1859    6.6666 H       1  UNL1        0.2545
     33 C          66.4514   91.9494   14.8992 C.3     1  UNL1        0.4183
     34 F          67.0950   91.6932   16.2296 F       1  UNL1       -0.1659
     35 F          67.4291   91.0176   14.2468 F       1  UNL1       -0.1659
     36 F          65.4736   92.8812   15.5516 F       1  UNL1       -0.1659
@<TRIPOS>BOND
     1    21    22    3
     2    22    15    1
     3    15    16   ar
     4    16    17   ar
     5    17    18   ar
     6    18    19   ar
     7    19    20   ar
     8    20     7    1
     9     7     8    2
    10     7     9   am
    11     9    10    1
    12    10    11    1
    13    11    12    1
    14    12     1    1
    15     1     2   ar
    16     2     3   ar
    17     3     4   ar
    18     4    23    1
    19    23    24    2
    20    23    25   am
    21    25    27    1
    22    27    28    2
    23    27    29    1
    24     4     5   ar
    25     5     6   ar
    26     6    33    1
    27    33    34    1
    28    33    35    1
    29    33    36    1
    30    12    13    1
    31    13    14    1
    32    20    15   ar
    33    14     9    1
    34     6     1   ar
    35    25    26    1
    36    28    30    1
    37    29    31    1
    38    29    32    1
@<TRIPOS>MOLECULE
*****
 36 38 0 0 0
SMALL
GASTEIGER

@<TRIPOS>ATOM
      1 C          61.6409   92.6956    1.9123 C.ar    1  UNL1       -0.0185
      2 C          62.4000   91.8098    2.8554 C.ar    1  UNL1       -0.0041
      3 C          61.7054   91.2051    4.0393 C.ar    1  UNL1        0.0057
      4 C          60.2517   91.4860    4.2802 C.ar    1  UNL1        0.0696
      5 C          59.4927   92.3718    3.3372 C.ar    1  UNL1        0.0095
      6 C          60.1873   92.9766    2.1532 C.ar    1  UNL1        0.0677
      7 C          64.4194   95.1148   -2.8234 C.2     1  UNL1        0.2497
      8 O          65.3803   96.2502   -2.6299 O.2     1  UNL1       -0.2699
      9 N          63.7248   94.5100   -1.6395 N.am    1  UNL1       -0.2760
     10 C          63.9911   95.0406   -0.2620 C.3     1  UNL1        0.0940
     11 C          63.2965   94.4358    0.9220 C.3     1  UNL1        0.0259
     12 C          62.3356   93.3004    0.7284 C.3     1  UNL1        0.0257
     13 C          62.0692   92.7698   -0.6491 C.3     1  UNL1        0.0259
     14 C          62.7639   93.3746   -1.8331 C.3     1  UNL1        0.0940
     15 C          62.9070   94.9874   -4.9322 C.ar    1  UNL1        0.0728
     16 C          62.6408   94.4568   -6.3096 C.ar    1  UNL1        0.0104
     17 C          63.6206   93.5228   -6.9560 C.ar    1  UNL1        0.0007
     18 C          64.8667   93.1196   -6.2248 C.ar    1  UNL1        0.0002
     19 C          65.1329   93.6502   -4.8473 C.ar    1  UNL1        0.0052
     20 C          64.1531   94.5841   -4.2010 C.ar    1  UNL1        0.0632
     21 N          60.9474   96.8552   -3.6395 N.1     1  UNL1       -0.1908
     22 C          61.9272   95.9213   -4.2859 C.1     1  UNL1        0.1006
     23 C          59.5571   90.8812    5.4642 C.2     1  UNL1        0.3078
     24 O          58.1258   91.2262    5.7509 O.2     1  UNL1       -0.2516
     25 N          60.2939   89.9314    6.3615 N.am    1  UNL1       -0.1708
     26 H          61.2333   89.7049    6.1733 H       1  UNL1        0.2545
     27 C          59.5993   89.3266    7.5454 C.2     1  UNL1        0.3751
     28 N          58.5033   88.3233    7.3401 N.pl3   1  UNL1       -0.1313
     29 N          60.0007   89.7251    8.9347 N.pl3   1  UNL1       -0.2906
     30 H          58.2398   88.0617    6.4283 H       1  UNL1        0.3060
     31 H          60.7200   90.3836    9.0695 H       1  UNL1        0.2545
     32 H          59.5448   89.3282    9.7118 H       1  UNL1        0.2545
     33 C          59.4283   93.8623    1.2102 C.3     1  UNL1        0.4183
     34 F          58.6693   94.7481    0.2672 F       1  UNL1       -0.1659
     35 F          59.8766   95.0680    1.9818 F       1  UNL1       -0.1659
     36 F          58.9800   92.6567    0.4387 F       1  UNL1       -0.1659
@<TRIPOS>BOND
     1    21    22    3
     2    22    15    1
     3    15    16   ar
     4    16    17   ar
     5    17    18   ar
     6    18    19   ar
     7    19    20   ar
     8    20     7    1
     9     7     8    2
    10     7     9   am
    11     9    10    1
    12    10    11    1
    13    11    12    1
    14    12     1    1
    15     1     2   ar
    16     2     3   ar
    17     3     4   ar
    18     4    23    1
    19    23    24    2
    20    23    25   am
    21    25    27    1
    22    27    28    2
    23    27    29    1
    24     4     5   ar
    25     5     6   ar
    26     6    33    1
    27    33    34    1
    28    33    35    1
    29    33    36    1
    30    12    13    1
    31    13    14    1
    32    20    15   ar
    33    14     9    1
    34     6     1   ar
    35    25    26    1
    36    28    30    1
    37    29    31    1
    38    29    32    1
@<TRIPOS>MOLECULE
*****
 36 38 0 0 0
SMALL
GASTEIGER

@<TRIPOS>ATOM
      1 C          60.9022   87.7648    9.1913 C.ar    1  UNL1       -0.0185
      2 C          60.2894   87.1656    7.9602 C.ar    1  UNL1       -0.0041
      3 C          59.6948   88.0555    6.9093 C.ar    1  UNL1        0.0057
      4 C          59.7130   89.5446    7.0894 C.ar    1  UNL1        0.0696
      5 C          60.3258   90.1437    8.3204 C.ar    1  UNL1        0.0095
      6 C          60.9204   89.2538    9.3714 C.ar    1  UNL1        0.0677
      7 C          63.2806   84.2051   13.3951 C.2     1  UNL1        0.2497
      8 O          64.2425   84.7687   14.3986 O.2     1  UNL1       -0.2699
      9 N          62.6860   85.0950   12.3442 N.am    1  UNL1       -0.2760
     10 C          63.0534   86.5486   12.2967 C.3     1  UNL1        0.0940
     11 C          62.4588   87.4385   11.2457 C.3     1  UNL1        0.0259
     12 C          61.4968   86.8749   10.2423 C.3     1  UNL1        0.0257
     13 C          61.1294   85.4214   10.2897 C.3     1  UNL1        0.0259
     14 C          61.7240   84.5314   11.3407 C.3     1  UNL1        0.0940
     15 C          63.3353   81.8346   12.3332 C.ar    1  UNL1        0.0728
     16 C          62.9680   80.3811   12.3807 C.ar    1  UNL1        0.0104
     17 C          62.1784   79.8445   13.5377 C.ar    1  UNL1        0.0007
     18 C          61.7562   80.7614   14.6472 C.ar    1  UNL1        0.0002
     19 C          62.1236   82.2149   14.5997 C.ar    1  UNL1        0.0052
     20 C          62.9132   82.7515   13.4426 C.ar    1  UNL1        0.0632
     21 N          64.9144   82.9077   10.0191 N.1     1  UNL1       -0.1908
     22 C          64.1249   82.3712   11.1761 C.1     1  UNL1        0.1006
     23 C          59.1184   90.4344    6.0384 C.2     1  UNL1        0.3078
     24 O          60.0128   91.2520    5.1542 O.2     1  UNL1       -0.2516
     25 N          57.6294   90.5068    5.8716 N.am    1  UNL1       -0.1708
     26 H          57.0424   89.9703    6.4520 H       1  UNL1        0.2545
     27 C          57.0348   91.3967    4.8207 C.2     1  UNL1        0.3751
     28 N          55.5576   91.6569    4.8063 N.pl3   1  UNL1       -0.1313
     29 N          57.9175   92.0265    3.7841 N.pl3   1  UNL1       -0.2906
     30 H          54.9784   91.2436    5.4866 H       1  UNL1        0.3060
     31 H          58.8870   91.8558    3.7936 H       1  UNL1        0.2545
     32 H          57.5272   92.6106    3.0943 H       1  UNL1        0.2545
     33 C          61.5331   89.8529   10.6025 C.3     1  UNL1        0.4183
     34 F          62.1459   90.4521   11.8335 F       1  UNL1       -0.1659
     35 F          62.8352   90.0149    9.8756 F       1  UNL1       -0.1659
     36 F          60.2311   89.6910   11.3294 F       1  UNL1       -0.1659
@<TRIPOS>BOND
     1    21    22    3
     2    22    15    1
     3    15    16   ar
     4    16    17   ar
     5    17    18   ar
     6    18    19   ar
     7    19    20   ar
     8    20     7    1
     9     7     8    2
    10     7     9   am
    11     9    10    1
    12    10    11    1
    13    11    12    1
    14    12     1    1
    15     1     2   ar
    16     2     3   ar
    17     3     4   ar
    18     4    23    1
    19    23    24    2
    20    23    25   am
    21    25    27    1
    22    27    28    2
    23    27    29    1
    24     4     5   ar
    25     5     6   ar
    26     6    33    1
    27    33    34    1
    28    33    35    1
    29    33    36    1
    30    12    13    1
    31    13    14    1
    32    20    15   ar
    33    14     9    1
    34     6     1   ar
    35    25    26    1
    36    28    30    1
    37    29    31    1
    38    29    32    1
@<TRIPOS>MOLECULE
*****
 36 38 0 0 0
SMALL
GASTEIGER

@<TRIPOS>ATOM
      1 C          64.1373   89.2212   13.0476 C.ar    1  UNL1       -0.0185
      2 C          64.7361   88.4626   14.1947 C.ar    1  UNL1       -0.0041
      3 C          64.2593   87.0750   14.5067 C.ar    1  UNL1        0.0057
      4 C          63.1836   86.4461   13.6716 C.ar    1  UNL1        0.0696
      5 C          62.5849   87.2047   12.5245 C.ar    1  UNL1        0.0095
      6 C          63.0617   88.5923   12.2124 C.ar    1  UNL1        0.0677
      7 C          66.0447   94.7713   11.7995 C.2     1  UNL1        0.2497
      8 O          66.6346   95.6233   12.8840 O.2     1  UNL1       -0.2699
      9 N          65.5678   93.3838   12.1115 N.am    1  UNL1       -0.2760
     10 C          65.6809   92.8482   13.5081 C.3     1  UNL1        0.0940
     11 C          65.2041   91.4607   13.8201 C.3     1  UNL1        0.0259
     12 C          64.6141   90.6087   12.7356 C.3     1  UNL1        0.0257
     13 C          64.5011   91.1443   11.3390 C.3     1  UNL1        0.0259
     14 C          64.9779   92.5319   11.0270 C.3     1  UNL1        0.0940
     15 C          66.8762   94.8323    9.3388 C.ar    1  UNL1        0.0728
     16 C          66.7631   95.3679    7.9423 C.ar    1  UNL1        0.0104
     17 C          65.7054   96.3783    7.6099 C.ar    1  UNL1        0.0007
     18 C          64.7608   96.8530    8.6740 C.ar    1  UNL1        0.0002
     19 C          64.8739   96.3173   10.0705 C.ar    1  UNL1        0.0052
     20 C          65.9316   95.3070   10.4029 C.ar    1  UNL1        0.0632
     21 N          68.9916   92.8115   10.0036 N.1     1  UNL1       -0.1908
     22 C          67.9339   93.8219    9.6712 C.1     1  UNL1        0.1006
     23 C          62.7068   85.0586   13.9836 C.2     1  UNL1        0.3078
     24 O          61.6973   84.8393   15.0712 O.2     1  UNL1       -0.2516
     25 N          63.2394   83.8903   13.2080 N.am    1  UNL1       -0.1708
     26 H          63.9020   84.0342   12.4941 H       1  UNL1        0.2545
     27 C          62.7626   82.5028   13.5200 C.2     1  UNL1        0.3751
     28 N          62.6795   82.0409   14.9446 N.pl3   1  UNL1       -0.1313
     29 N          62.3688   81.5771   12.4072 N.pl3   1  UNL1       -0.2906
     30 H          62.9379   82.6484   15.6750 H       1  UNL1        0.3060
     31 H          62.4234   81.8802   11.4721 H       1  UNL1        0.2545
     32 H          62.0559   80.6664   12.6120 H       1  UNL1        0.2545
     33 C          62.4629   89.3508   11.0653 C.3     1  UNL1        0.4183
     34 F          61.8641   90.1094    9.9181 F       1  UNL1       -0.1659
     35 F          61.8042   90.2910   12.0308 F       1  UNL1       -0.1659
     36 F          63.1216   88.4107   10.0998 F       1  UNL1       -0.1659
@<TRIPOS>BOND
     1    21    22    3
     2    22    15    1
     3    15    16   ar
     4    16    17   ar
     5    17    18   ar
     6    18    19   ar
     7    19    20   ar
     8    20     7    1
     9     7     8    2
    10     7     9   am
    11     9    10    1
    12    10    11    1
    13    11    12    1
    14    12     1    1
    15     1     2   ar
    16     2     3   ar
    17     3     4   ar
    18     4    23    1
    19    23    24    2
    20    23    25   am
    21    25    27    1
    22    27    28    2
    23    27    29    1
    24     4     5   ar
    25     5     6   ar
    26     6    33    1
    27    33    34    1
    28    33    35    1
    29    33    36    1
    30    12    13    1
    31    13    14    1
    32    20    15   ar
    33    14     9    1
    34     6     1   ar
    35    25    26    1
    36    28    30    1
    37    29    31    1
    38    29    32    1
@<TRIPOS>MOLECULE
*****
 36 38 0 0 0
SMALL
GASTEIGER

@<TRIPOS>ATOM
      1 C          60.8335   88.0735    9.2702 C.ar    1  UNL1       -0.0185
      2 C          60.2051   87.3187    8.1364 C.ar    1  UNL1       -0.0041
      3 C          59.4482   88.0567    7.0723 C.ar    1  UNL1        0.0057
      4 C          59.3196   89.5495    7.1419 C.ar    1  UNL1        0.0696
      5 C          59.9479   90.3044    8.2756 C.ar    1  UNL1        0.0095
      6 C          60.7049   89.5664    9.3398 C.ar    1  UNL1        0.0677
      7 C          63.8613   85.1214   13.5266 C.2     1  UNL1        0.2497
      8 O          64.8714   85.8449   14.3670 O.2     1  UNL1       -0.2699
      9 N          63.1044   85.8594   12.4625 N.am    1  UNL1       -0.2760
     10 C          63.3575   87.3209   12.2388 C.3     1  UNL1        0.0940
     11 C          62.6006   88.0589   11.1747 C.3     1  UNL1        0.0259
     12 C          61.5905   87.3355   10.3343 C.3     1  UNL1        0.0257
     13 C          61.3373   85.8741   10.5579 C.3     1  UNL1        0.0259
     14 C          62.0943   85.1360   11.6221 C.3     1  UNL1        0.0940
     15 C          62.6991   83.2172   14.8582 C.ar    1  UNL1        0.0728
     16 C          62.4460   81.7557   15.0819 C.ar    1  UNL1        0.0104
     17 C          63.1020   80.7370   14.1976 C.ar    1  UNL1        0.0007
     18 C          64.0110   81.1797   13.0897 C.ar    1  UNL1        0.0002
     19 C          64.2641   82.6412   12.8660 C.ar    1  UNL1        0.0052
     20 C          63.6082   83.6599   13.7503 C.ar    1  UNL1        0.0632
     21 N          61.3873   85.2546   16.6268 N.1     1  UNL1       -0.1908
     22 C          62.0432   84.2359   15.7425 C.1     1  UNL1        0.1006
     23 C          58.5626   90.2875    6.0778 C.2     1  UNL1        0.3078
     24 O          57.0833   90.0858    5.9330 O.2     1  UNL1       -0.2516
     25 N          59.2850   91.2274    5.1585 N.am    1  UNL1       -0.1708
     26 H          60.2559   91.3598    5.2536 H       1  UNL1        0.2545
     27 C          58.5280   91.9654    4.0944 C.2     1  UNL1        0.3751
     28 N          59.2709   92.6926    3.0131 N.pl3   1  UNL1       -0.1313
     29 N          57.0281   91.9762    4.1116 N.pl3   1  UNL1       -0.2906
     30 H          60.2553   92.6855    3.0018 H       1  UNL1        0.3060
     31 H          56.5405   91.4989    4.8213 H       1  UNL1        0.2545
     32 H          56.5313   92.4605    3.4132 H       1  UNL1        0.2545
     33 C          61.3333   90.3212   10.4735 C.3     1  UNL1        0.4183
     34 F          61.9616   91.0761   11.6072 F       1  UNL1       -0.1659
     35 F          60.1128   90.0791   11.3112 F       1  UNL1       -0.1659
     36 F          62.5537   90.5634    9.6358 F       1  UNL1       -0.1659
@<TRIPOS>BOND
     1    21    22    3
     2    22    15    1
     3    15    16   ar
     4    16    17   ar
     5    17    18   ar
     6    18    19   ar
     7    19    20   ar
     8    20     7    1
     9     7     8    2
    10     7     9   am
    11     9    10    1
    12    10    11    1
    13    11    12    1
    14    12     1    1
    15     1     2   ar
    16     2     3   ar
    17     3     4   ar
    18     4    23    1
    19    23    24    2
    20    23    25   am
    21    25    27    1
    22    27    28    2
    23    27    29    1
    24     4     5   ar
    25     5     6   ar
    26     6    33    1
    27    33    34    1
    28    33    35    1
    29    33    36    1
    30    12    13    1
    31    13    14    1
    32    20    15   ar
    33    14     9    1
    34     6     1   ar
    35    25    26    1
    36    28    30    1
    37    29    31    1
    38    29    32    1
@<TRIPOS>MOLECULE
*****
 36 38 0 0 0
SMALL
GASTEIGER

@<TRIPOS>ATOM
      1 C          60.7667   87.5633    8.7828 C.ar    1  UNL1       -0.0185
      2 C          60.0271   86.9776    7.6166 C.ar    1  UNL1       -0.0041
      3 C          59.2951   87.8765    6.6648 C.ar    1  UNL1        0.0057
      4 C          59.3027   89.3611    6.8790 C.ar    1  UNL1        0.0696
      5 C          60.0423   89.9468    8.0452 C.ar    1  UNL1        0.0095
      6 C          60.7744   89.0479    8.9971 C.ar    1  UNL1        0.0677
      7 C          63.6948   83.9676   12.5903 C.2     1  UNL1        0.2497
      8 O          64.4826   82.8034   12.0669 O.2     1  UNL1       -0.2699
      9 N          62.9628   84.8665   11.6385 N.am    1  UNL1       -0.2760
     10 C          63.0185   84.6012   10.1631 C.3     1  UNL1        0.0940
     11 C          62.2865   85.5001    9.2113 C.3     1  UNL1        0.0259
     12 C          61.4988   86.6644    9.7347 C.3     1  UNL1        0.0257
     13 C          61.4430   86.9297   11.2099 C.3     1  UNL1        0.0259
     14 C          62.1751   86.0308   12.1619 C.3     1  UNL1        0.0940
     15 C          62.8127   83.3524   14.9554 C.ar    1  UNL1        0.0728
     16 C          62.7571   83.6177   16.4307 C.ar    1  UNL1        0.0104
     17 C          63.5278   84.7637   17.0162 C.ar    1  UNL1        0.0007
     18 C          64.3541   85.6443   16.1265 C.ar    1  UNL1        0.0002
     19 C          64.4098   85.3789   14.6512 C.ar    1  UNL1        0.0052
     20 C          63.6391   84.2330   14.0657 C.ar    1  UNL1        0.0632
     21 N          61.2714   81.0605   13.7843 N.1     1  UNL1       -0.1908
     22 C          62.0420   82.2064   14.3698 C.1     1  UNL1        0.1006
     23 C          58.5707   90.2600    5.9272 C.2     1  UNL1        0.3078
     24 O          57.0716   90.2392    5.8784 O.2     1  UNL1       -0.2516
     25 N          59.3377   91.1799    5.0240 N.am    1  UNL1       -0.1708
     26 H          60.3216   91.1936    5.0560 H       1  UNL1        0.2545
     27 C          58.6057   92.0788    4.0722 C.2     1  UNL1        0.3751
     28 N          57.1066   92.0580    4.0235 N.pl3   1  UNL1       -0.1313
     29 N          59.3728   92.9985    3.1689 N.pl3   1  UNL1       -0.2906
     30 H          56.6032   91.4543    4.6163 H       1  UNL1        0.3060
     31 H          60.3566   93.0122    3.2009 H       1  UNL1        0.2545
     32 H          58.8923   93.5885    2.5442 H       1  UNL1        0.2545
     33 C          61.5140   89.6336   10.1632 C.3     1  UNL1        0.4183
     34 F          62.2536   90.2193   11.3293 F       1  UNL1       -0.1659
     35 F          62.8182   89.3461    9.4804 F       1  UNL1       -0.1659
     36 F          60.2097   89.9211   10.8460 F       1  UNL1       -0.1659
@<TRIPOS>BOND
     1    21    22    3
     2    22    15    1
     3    15    16   ar
     4    16    17   ar
     5    17    18   ar
     6    18    19   ar
     7    19    20   ar
     8    20     7    1
     9     7     8    2
    10     7     9   am
    11     9    10    1
    12    10    11    1
    13    11    12    1
    14    12     1    1
    15     1     2   ar
    16     2     3   ar
    17     3     4   ar
    18     4    23    1
    19    23    24    2
    20    23    25   am
    21    25    27    1
    22    27    28    2
    23    27    29    1
    24     4     5   ar
    25     5     6   ar
    26     6    33    1
    27    33    34    1
    28    33    35    1
    29    33    36    1
    30    12    13    1
    31    13    14    1
    32    20    15   ar
    33    14     9    1
    34     6     1   ar
    35    25    26    1
    36    28    30    1
    37    29    31    1
    38    29    32    1
@<TRIPOS>MOLECULE
*****
 36 38 0 0 0
SMALL
GASTEIGER

@<TRIPOS>ATOM
      1 C          63.1133   84.6953   12.0967 C.ar    1  UNL1       -0.0185
      2 C          63.1417   84.1073   10.7170 C.ar    1  UNL1       -0.0041
      3 C          63.0769   82.6199   10.5342 C.ar    1  UNL1        0.0057
      4 C          62.9837   81.7205   11.7310 C.ar    1  UNL1        0.0696
      5 C          62.9553   82.3085   13.1107 C.ar    1  UNL1        0.0095
      6 C          63.0201   83.7959   13.2935 C.ar    1  UNL1        0.0677
      7 C          63.3724   90.6449   12.8280 C.2     1  UNL1        0.2497
      8 O          62.6482   91.5499   11.8759 O.2     1  UNL1       -0.2699
      9 N          63.3077   89.1575   12.6452 N.am    1  UNL1       -0.2760
     10 C          62.5186   88.5750   11.5102 C.3     1  UNL1        0.0940
     11 C          62.4539   87.0876   11.3274 C.3     1  UNL1        0.0259
     12 C          63.1781   86.1827   12.2795 C.3     1  UNL1        0.0257
     13 C          63.9670   86.7651   13.4145 C.3     1  UNL1        0.0259
     14 C          64.0318   88.2526   13.5974 C.3     1  UNL1        0.0940
     15 C          65.3975   92.0297   13.6832 C.ar    1  UNL1        0.0728
     16 C          66.1865   92.6122   14.8183 C.ar    1  UNL1        0.0104
     17 C          65.7393   92.3924   16.2331 C.ar    1  UNL1        0.0007
     18 C          64.5032   91.5901   16.5129 C.ar    1  UNL1        0.0002
     19 C          63.7143   91.0076   15.3779 C.ar    1  UNL1        0.0052
     20 C          64.1614   91.2274   13.9631 C.ar    1  UNL1        0.0632
     21 N          66.2919   92.4693   10.8536 N.1     1  UNL1       -0.1908
     22 C          65.8447   92.2495   12.2684 C.1     1  UNL1        0.1006
     23 C          62.9189   80.2331   11.5482 C.2     1  UNL1        0.3078
     24 O          62.5350   79.3519   12.6998 O.2     1  UNL1       -0.2516
     25 N          63.2381   79.6269   10.2138 N.am    1  UNL1       -0.1708
     26 H          63.4901   80.2052    9.4580 H       1  UNL1        0.2545
     27 C          63.1733   78.1395   10.0310 C.2     1  UNL1        0.3751
     28 N          64.2271   77.4359    9.2282 N.pl3   1  UNL1       -0.1313
     29 N          62.0547   77.3556   10.6510 N.pl3   1  UNL1       -0.2906
     30 H          64.9612   77.9503    8.8212 H       1  UNL1        0.3060
     31 H          61.3631   77.8174   11.1780 H       1  UNL1        0.2545
     32 H          62.0122   76.3794   10.5310 H       1  UNL1        0.2545
     33 C          62.9917   84.3839   14.6732 C.3     1  UNL1        0.4183
     34 F          62.9633   84.9719   16.0528 F       1  UNL1       -0.1659
     35 F          61.5068   84.5661   14.5650 F       1  UNL1       -0.1659
     36 F          64.4766   84.2017   14.7814 F       1  UNL1       -0.1659
@<TRIPOS>BOND
     1    21    22    3
     2    22    15    1
     3    15    16   ar
     4    16    17   ar
     5    17    18   ar
     6    18    19   ar
     7    19    20   ar
     8    20     7    1
     9     7     8    2
    10     7     9   am
    11     9    10    1
    12    10    11    1
    13    11    12    1
    14    12     1    1
    15     1     2   ar
    16     2     3   ar
    17     3     4   ar
    18     4    23    1
    19    23    24    2
    20    23    25   am
    21    25    27    1
    22    27    28    2
    23    27    29    1
    24     4     5   ar
    25     5     6   ar
    26     6    33    1
    27    33    34    1
    28    33    35    1
    29    33    36    1
    30    12    13    1
    31    13    14    1
    32    20    15   ar
    33    14     9    1
    34     6     1   ar
    35    25    26    1
    36    28    30    1
    37    29    31    1
    38    29    32    1
@<TRIPOS>MOLECULE
*****
 36 38 0 0 0
SMALL
GASTEIGER

@<TRIPOS>ATOM
      1 C          63.2929   85.7659   13.8750 C.ar    1  UNL1       -0.0185
      2 C          63.1163   84.9381   12.6366 C.ar    1  UNL1       -0.0041
      3 C          62.6481   83.5172   12.7447 C.ar    1  UNL1        0.0057
      4 C          62.3566   82.9240   14.0912 C.ar    1  UNL1        0.0696
      5 C          62.5332   83.7517   15.3296 C.ar    1  UNL1        0.0095
      6 C          63.0014   85.1727   15.2216 C.ar    1  UNL1        0.0677
      7 C          65.1656   91.4497   13.4426 C.2     1  UNL1        0.2497
      8 O          64.4875   92.3926   12.4933 O.2     1  UNL1       -0.2699
      9 N          64.6974   90.0288   13.5507 N.am    1  UNL1       -0.2760
     10 C          63.5512   89.5507   12.7095 C.3     1  UNL1        0.0940
     11 C          63.0830   88.1297   12.8176 C.3     1  UNL1        0.0259
     12 C          63.7611   87.1868   13.7669 C.3     1  UNL1        0.0257
     13 C          64.9072   87.6649   14.6082 C.3     1  UNL1        0.0259
     14 C          65.3754   89.0859   14.5001 C.3     1  UNL1        0.0940
     15 C          66.0749   92.3517   15.7031 C.ar    1  UNL1        0.0728
     16 C          67.2210   92.8298   16.5443 C.ar    1  UNL1        0.0104
     17 C          68.6041   92.8840   15.9663 C.ar    1  UNL1        0.0007
     18 C          68.8411   92.4602   14.5471 C.ar    1  UNL1        0.0002
     19 C          67.6949   91.9821   13.7059 C.ar    1  UNL1        0.0052
     20 C          66.3118   91.9278   14.2839 C.ar    1  UNL1        0.0632
     21 N          63.3087   92.2432   16.8591 N.1     1  UNL1       -0.1908
     22 C          64.6918   92.2974   16.2811 C.1     1  UNL1        0.1006
     23 C          61.8884   81.5030   14.1993 C.2     1  UNL1        0.3078
     24 O          62.8859   80.3955   14.3680 O.2     1  UNL1       -0.2516
     25 N          60.4228   81.1896   14.1388 N.am    1  UNL1       -0.1708
     26 H          59.7681   81.9164   14.0281 H       1  UNL1        0.2545
     27 C          59.9546   79.7686   14.2469 C.2     1  UNL1        0.3751
     28 N          58.6018   79.4662   14.8201 N.pl3   1  UNL1       -0.1313
     29 N          60.8393   78.6500   13.7819 N.pl3   1  UNL1       -0.2906
     30 H          58.0212   80.2003   15.1253 H       1  UNL1        0.3060
     31 H          61.7272   78.8485   13.4057 H       1  UNL1        0.2545
     32 H          60.5320   77.7174   13.8529 H       1  UNL1        0.2545
     33 C          63.1779   86.0004   16.4599 C.3     1  UNL1        0.4183
     34 F          63.3545   86.8281   17.6983 F       1  UNL1       -0.1659
     35 F          61.7305   86.3899   16.4060 F       1  UNL1       -0.1659
     36 F          64.6254   85.6108   16.5139 F       1  UNL1       -0.1659
@<TRIPOS>BOND
     1    21    22    3
     2    22    15    1
     3    15    16   ar
     4    16    17   ar
     5    17    18   ar
     6    18    19   ar
     7    19    20   ar
     8    20     7    1
     9     7     8    2
    10     7     9   am
    11     9    10    1
    12    10    11    1
    13    11    12    1
    14    12     1    1
    15     1     2   ar
    16     2     3   ar
    17     3     4   ar
    18     4    23    1
    19    23    24    2
    20    23    25   am
    21    25    27    1
    22    27    28    2
    23    27    29    1
    24     4     5   ar
    25     5     6   ar
    26     6    33    1
    27    33    34    1
    28    33    35    1
    29    33    36    1
    30    12    13    1
    31    13    14    1
    32    20    15   ar
    33    14     9    1
    34     6     1   ar
    35    25    26    1
    36    28    30    1
    37    29    31    1
    38    29    32    1
@<TRIPOS>MOLECULE
*****
 36 38 0 0 0
SMALL
GASTEIGER

@<TRIPOS>ATOM
      1 C          63.0743   84.7599   12.0844 C.ar    1  UNL1       -0.0185
      2 C          63.1866   83.8555   13.2758 C.ar    1  UNL1       -0.0041
      3 C          63.1123   82.3680   13.0979 C.ar    1  UNL1        0.0057
      4 C          62.9257   81.7848   11.7286 C.ar    1  UNL1        0.0696
      5 C          62.8133   82.6891   10.5372 C.ar    1  UNL1        0.0095
      6 C          62.8876   84.1767   10.7150 C.ar    1  UNL1        0.0677
      7 C          63.3715   90.7101   12.7960 C.2     1  UNL1        0.2497
      8 O          62.6444   91.6162   11.8472 O.2     1  UNL1       -0.2699
      9 N          63.2972   89.2226   12.6181 N.am    1  UNL1       -0.2760
     10 C          62.4957   88.6411   11.4913 C.3     1  UNL1        0.0940
     11 C          62.4214   87.1535   11.3134 C.3     1  UNL1        0.0259
     12 C          63.1486   86.2475   12.2622 C.3     1  UNL1        0.0257
     13 C          63.9500   86.8289   13.3890 C.3     1  UNL1        0.0259
     14 C          64.0244   88.3165   13.5669 C.3     1  UNL1        0.0940
     15 C          65.4152   92.0801   13.6307 C.ar    1  UNL1        0.0728
     16 C          66.2166   92.6615   14.7574 C.ar    1  UNL1        0.0104
     17 C          65.7759   92.4546   16.1762 C.ar    1  UNL1        0.0007
     18 C          64.5337   91.6662   16.4682 C.ar    1  UNL1        0.0002
     19 C          63.7323   91.0847   15.3415 C.ar    1  UNL1        0.0052
     20 C          64.1730   91.2916   13.9227 C.ar    1  UNL1        0.0632
     21 N          66.2967   92.4939   10.7932 N.1     1  UNL1       -0.1908
     22 C          65.8560   92.2870   12.2119 C.1     1  UNL1        0.1006
     23 C          62.8514   80.2973   11.5507 C.2     1  UNL1        0.3078
     24 O          62.4384   79.4243   12.6985 O.2     1  UNL1       -0.2516
     25 N          63.1900   79.6826   10.2250 N.am    1  UNL1       -0.1708
     26 H          63.4610   80.2555    9.4716 H       1  UNL1        0.2545
     27 C          63.1157   78.1951   10.0471 C.2     1  UNL1        0.3751
     28 N          64.1610   77.4830    9.2407 N.pl3   1  UNL1       -0.1313
     29 N          61.9960   77.4195   10.6756 N.pl3   1  UNL1       -0.2906
     30 H          64.8959   77.9920    8.8282 H       1  UNL1        0.3060
     31 H          61.3099   77.8869   11.2048 H       1  UNL1        0.2545
     32 H          61.9472   76.4432   10.5588 H       1  UNL1        0.2545
     33 C          62.7753   85.0810    9.5236 C.3     1  UNL1        0.4183
     34 F          62.6629   85.9854    8.3322 F       1  UNL1       -0.1659
     35 F          64.2161   84.8258    9.1940 F       1  UNL1       -0.1659
     36 F          61.3344   85.3363    9.8532 F       1  UNL1       -0.1659
@<TRIPOS>BOND
     1    21    22    3
     2    22    15    1
     3    15    16   ar
     4    16    17   ar
     5    17    18   ar
     6    18    19   ar
     7    19    20   ar
     8    20     7    1
     9     7     8    2
    10     7     9   am
    11     9    10    1
    12    10    11    1
    13    11    12    1
    14    12     1    1
    15     1     2   ar
    16     2     3   ar
    17     3     4   ar
    18     4    23    1
    19    23    24    2
    20    23    25   am
    21    25    27    1
    22    27    28    2
    23    27    29    1
    24     4     5   ar
    25     5     6   ar
    26     6    33    1
    27    33    34    1
    28    33    35    1
    29    33    36    1
    30    12    13    1
    31    13    14    1
    32    20    15   ar
    33    14     9    1
    34     6     1   ar
    35    25    26    1
    36    28    30    1
    37    29    31    1
    38    29    32    1
