@<TRIPOS>MOLECULE
*****
 39 45 0 0 0
SMALL
GASTEIGER

@<TRIPOS>ATOM
      1 C          61.1566   92.5147    2.4926 C.2     1  UNL1       -0.0378
      2 C          62.0278   91.5271    3.2107 C.2     1  UNL1       -0.0080
      3 C          61.4850   90.7586    4.3790 C.2     1  UNL1        0.0022
      4 C          60.0710   90.9777    4.8292 C.2     1  UNL1        0.0350
      5 C          59.2658   90.3709    5.9397 C.2     1  UNL1        0.1040
      6 N          57.8970   90.9835    5.9081 N.2     1  UNL1       -0.1483
      7 N          57.8562   91.9689    4.7780 N.2     1  UNL1       -0.1520
      8 C          59.1998   91.9654    4.1111 C.2     1  UNL1        0.0860
      9 C          59.7426   92.7339    2.9429 C.3     1  UNL1        0.0697
     10 C          63.3783   95.8597   -3.0470 C.ar    1  UNL1        0.1385
     11 C          62.4898   95.3980   -4.1639 C.ar    1  UNL1        0.0382
     12 C          61.4015   94.4017   -3.8935 C.ar    1  UNL1        0.0175
     13 C          61.2017   93.8672   -2.5063 C.ar    1  UNL1        0.0469
     14 C          62.0902   94.3289   -1.3894 C.ar    1  UNL1        0.0022
     15 C          63.1785   95.3252   -1.6597 C.ar    1  UNL1        0.0343
     16 C          61.6575   93.6311   -0.1341 C.3     1  UNL1        0.0928
     17 C          62.6811   94.2664    0.7594 C.3     1  UNL1        0.0179
     18 C          61.6993   93.2832    1.3244 C.3     1  UNL1        0.0315
     19 C          60.5015   92.7380   -0.4752 C.2     1  UNL1        0.2293
     20 O          59.7578   91.8542    0.4817 O.2     1  UNL1       -0.2744
     21 N          60.2198   92.8840   -1.9413 N.am    1  UNL1       -0.2839
     22 H          59.5144   92.4165   -2.4444 H       1  UNL1        0.1549
     23 C          65.7794   96.7457   -2.6001 C.3     1  UNL1        0.2525
     24 O          64.4666   96.8560   -3.3173 O.3     1  UNL1       -0.4714
     25 C          59.7453   89.3336    6.9114 C.2     1  UNL1        0.0210
     26 C          60.5330   89.7451    8.1197 C.2     1  UNL1        0.0031
     27 C          61.0126   88.7078    9.0915 C.ar    1  UNL1        0.0193
     28 C          60.7979   87.2519    8.8010 C.ar    1  UNL1        0.0044
     29 C          61.2774   86.2146    9.7726 C.ar    1  UNL1        0.0343
     30 C          61.9716   86.6332   11.0347 C.ar    1  UNL1        0.1318
     31 N          62.1862   88.0891   11.3252 N.ar    1  UNL1       -0.2292
     32 C          61.7067   89.1264   10.3535 C.ar    1  UNL1        0.1003
     33 N          62.4511   85.5959   12.0063 N.pl3   1  UNL1       -0.2904
     34 C          63.1175   86.0152   13.2829 C.3     1  UNL1        0.1095
     35 C          63.5970   84.9779   14.2546 C.3     1  UNL1        0.0939
     36 N          63.4100   83.5212   13.9496 N.3     1  UNL1       -0.2686
     37 C          63.8895   82.4839   14.9212 C.3     1  UNL1        0.0897
     38 C          62.7435   83.1018   12.6729 C.3     1  UNL1        0.0939
     39 C          62.2640   84.1391   11.7013 C.3     1  UNL1        0.1095
@<TRIPOS>BOND
     1    23    24    1
     2    24    10    1
     3    10    11   ar
     4    11    12   ar
     5    12    13   ar
     6    13    14   ar
     7    14    15   ar
     8    14    16    1
     9    16    17    1
    10    17    18    1
    11    18     1    1
    12     1     2    2
    13     2     3    1
    14     3     4    2
    15     4     5    1
    16     5    25    1
    17    25    26    2
    18    26    27    1
    19    27    28   ar
    20    28    29   ar
    21    29    30   ar
    22    30    33    1
    23    33    34    1
    24    34    35    1
    25    35    36    1
    26    36    37    1
    27    36    38    1
    28    38    39    1
    29    30    31   ar
    30    31    32   ar
    31     5     6    2
    32     6     7    1
    33     7     8    2
    34     8     9    1
    35    16    19    1
    36    19    20    2
    37    19    21   am
    38    15    10   ar
    39    18    16    1
    40     9     1    1
    41    21    13    1
    42     8     4    1
    43    32    27   ar
    44    39    33    1
    45    21    22    1
@<TRIPOS>MOLECULE
*****
 39 45 0 0 0
SMALL
GASTEIGER

@<TRIPOS>ATOM
      1 C          61.2010   92.5956    2.5157 C.2     1  UNL1       -0.0378
      2 C          62.0593   91.5306    3.1314 C.2     1  UNL1       -0.0080
      3 C          61.5341   90.7107    4.2725 C.2     1  UNL1        0.0022
      4 C          60.1507   90.9559    4.7978 C.2     1  UNL1        0.0350
      5 C          59.3679   90.3112    5.9031 C.2     1  UNL1        0.1040
      6 N          58.0258   90.9778    5.9705 N.2     1  UNL1       -0.1483
      7 N          57.9792   92.0344    4.9069 N.2     1  UNL1       -0.1520
      8 C          59.2924   92.0209    4.1822 C.2     1  UNL1        0.0860
      9 C          59.8175   92.8408    3.0411 C.3     1  UNL1        0.0697
     10 C          63.9089   96.3780   -2.5015 C.ar    1  UNL1        0.1385
     11 C          65.2821   96.7405   -2.0190 C.ar    1  UNL1        0.0382
     12 C          65.7565   96.2625   -0.6786 C.ar    1  UNL1        0.0175
     13 C          64.8577   95.4221    0.1791 C.ar    1  UNL1        0.0469
     14 C          63.4845   95.0596   -0.3034 C.ar    1  UNL1        0.0022
     15 C          63.0100   95.5376   -1.6437 C.ar    1  UNL1        0.0343
     16 C          62.8271   94.2237    0.7544 C.3     1  UNL1        0.0928
     17 C          61.5348   94.0274    0.0186 C.3     1  UNL1        0.0179
     18 C          61.7262   93.4155    1.3747 C.3     1  UNL1        0.0315
     19 C          63.7941   94.0696    1.8908 C.2     1  UNL1        0.2293
     20 O          63.5491   93.3084    3.1599 O.2     1  UNL1       -0.2744
     21 N          65.0491   94.8102    1.5352 N.am    1  UNL1       -0.2839
     22 H          65.8566   94.8821    2.0938 H       1  UNL1        0.1549
     23 C          63.5559   95.9645   -5.0421 C.3     1  UNL1        0.2525
     24 O          63.4344   96.8560   -3.8418 O.3     1  UNL1       -0.4714
     25 C          59.8436   89.1957    6.7859 C.2     1  UNL1        0.0210
     26 C          60.2477   89.4804    8.2021 C.2     1  UNL1        0.0031
     27 C          60.7235   88.3649    9.0850 C.ar    1  UNL1        0.0193
     28 C          61.0012   87.0119    8.5001 C.ar    1  UNL1        0.0044
     29 C          61.4770   85.8964    9.3829 C.ar    1  UNL1        0.0343
     30 C          61.6751   86.1341   10.8507 C.ar    1  UNL1        0.1318
     31 N          61.3974   87.4871   11.4356 N.ar    1  UNL1       -0.2292
     32 C          60.9216   88.6026   10.5527 C.ar    1  UNL1        0.1003
     33 N          62.1508   85.0186   11.7335 N.pl3   1  UNL1       -0.2904
     34 C          62.3998   83.6577   11.1541 C.3     1  UNL1        0.1095
     35 C          62.8756   82.5422   12.0369 C.3     1  UNL1        0.0939
     36 N          63.1024   82.7877   13.4992 N.3     1  UNL1       -0.2686
     37 C          63.5782   81.6722   14.3820 C.3     1  UNL1        0.0897
     38 C          62.8534   84.1486   14.0787 C.3     1  UNL1        0.0939
     39 C          62.3776   85.2641   13.1958 C.3     1  UNL1        0.1095
@<TRIPOS>BOND
     1    23    24    1
     2    24    10    1
     3    10    11   ar
     4    11    12   ar
     5    12    13   ar
     6    13    14   ar
     7    14    15   ar
     8    14    16    1
     9    16    17    1
    10    17    18    1
    11    18     1    1
    12     1     2    2
    13     2     3    1
    14     3     4    2
    15     4     5    1
    16     5    25    1
    17    25    26    2
    18    26    27    1
    19    27    28   ar
    20    28    29   ar
    21    29    30   ar
    22    30    33    1
    23    33    34    1
    24    34    35    1
    25    35    36    1
    26    36    37    1
    27    36    38    1
    28    38    39    1
    29    30    31   ar
    30    31    32   ar
    31     5     6    2
    32     6     7    1
    33     7     8    2
    34     8     9    1
    35    16    19    1
    36    19    20    2
    37    19    21   am
    38    15    10   ar
    39    18    16    1
    40     9     1    1
    41    21    13    1
    42     8     4    1
    43    32    27   ar
    44    39    33    1
    45    21    22    1
