@<TRIPOS>MOLECULE
*****
 32 36 0 0 0
SMALL
GASTEIGER

@<TRIPOS>ATOM
      1 N          65.3397   92.3742   12.1204 N.3     1  UNL1       -0.2640
      2 C          66.2972   96.7837    9.1389 C.ar    1  UNL1        0.0203
      3 C          65.2184   96.3966   10.1065 C.ar    1  UNL1        0.0985
      4 N          65.2589   95.0558   10.7778 N.ar    1  UNL1       -0.2471
      5 C          66.3781   94.1021   10.4815 C.ar    1  UNL1        0.0695
      6 C          67.4568   94.4892    9.5139 C.ar    1  UNL1       -0.0073
      7 C          67.4164   95.8300    8.8426 C.ar    1  UNL1       -0.0015
      8 C          68.5761   93.5355    9.2176 C.3     1  UNL1        0.0277
      9 C          68.6165   92.1947    9.8889 C.3     1  UNL1        0.0065
     10 C          67.5377   91.8076   10.8565 C.3     1  UNL1        0.0224
     11 C          66.4185   92.7613   11.1528 C.3     1  UNL1        0.0981
     12 C          63.9719   92.0201   11.6165 C.3     1  UNL1        0.0741
     13 C          63.8215   91.1668   10.3920 C.3     1  UNL1        0.0347
     14 C          62.4612   90.9284    9.8065 C.3     1  UNL1        0.0736
     15 N          61.5259   89.9517   10.4556 N.3     1  UNL1       -0.2703
     16 C          60.3977   90.4483   11.3103 C.3     1  UNL1        0.0894
     17 C          59.4624   89.4715   11.9594 C.3     1  UNL1        0.0862
     18 N          59.6554   87.9983   11.7538 N.3     1  UNL1       -0.2951
     19 C          60.7836   87.5017   10.8991 C.3     1  UNL1        0.0862
     20 C          61.7189   88.4784   10.2501 C.3     1  UNL1        0.0894
     21 H          58.7936   87.6435   11.3392 H       1  UNL1        0.1233
     22 C          65.6286   92.3412   13.5920 C.3     1  UNL1        0.1189
     23 C          64.9549   91.3252   14.4660 C.ar    1  UNL1        0.0752
     24 C          65.0703   89.8646   14.1442 C.ar    1  UNL1        0.0161
     25 C          64.3966   88.8486   15.0182 C.ar    1  UNL1        0.0027
     26 C          64.5120   87.3881   14.6964 C.ar    1  UNL1        0.0001
     27 C          63.8383   86.3720   15.5703 C.ar    1  UNL1        0.0000
     28 C          63.0493   86.8165   16.7661 C.ar    1  UNL1        0.0000
     29 C          62.9339   88.2771   17.0879 C.ar    1  UNL1        0.0015
     30 C          63.6076   89.2931   16.2139 C.ar    1  UNL1        0.0192
     31 C          63.4922   90.7536   16.5357 C.ar    1  UNL1        0.0984
     32 N          64.1659   91.7697   15.6618 N.ar    1  UNL1       -0.2468
@<TRIPOS>BOND
     1     2     3   ar
     2     3     4   ar
     3     4     5   ar
     4     5     6   ar
     5     6     7   ar
     6     6     8    1
     7     8     9    1
     8     9    10    1
     9    10    11    1
    10    11     1    1
    11     1    12    1
    12    12    13    1
    13    13    14    1
    14    14    15    1
    15    15    16    1
    16    16    17    1
    17    17    18    1
    18    18    19    1
    19    19    20    1
    20     1    22    1
    21    22    23    1
    22    23    24   ar
    23    24    25   ar
    24    25    26   ar
    25    26    27   ar
    26    27    28   ar
    27    28    29   ar
    28    29    30   ar
    29    30    31   ar
    30    31    32   ar
    31     7     2   ar
    32    20    15    1
    33    32    23   ar
    34    11     5    1
    35    30    25   ar
    36    18    21    1
@<TRIPOS>MOLECULE
*****
 32 36 0 0 0
SMALL
GASTEIGER

@<TRIPOS>ATOM
      1 N          63.4448   88.8155   13.5913 N.3     1  UNL1       -0.2640
      2 C          61.2594   85.8933    9.5994 C.ar    1  UNL1        0.0203
      3 C          61.7418   85.5686   10.9821 C.ar    1  UNL1        0.0985
      4 N          62.3094   86.6509   11.8518 N.ar    1  UNL1       -0.2471
      5 C          62.3947   88.0579   11.3389 C.ar    1  UNL1        0.0695
      6 C          61.9124   88.3825    9.9562 C.ar    1  UNL1       -0.0073
      7 C          61.3447   87.3003    9.0865 C.ar    1  UNL1       -0.0015
      8 C          61.9977   89.7896    9.4432 C.3     1  UNL1        0.0277
      9 C          62.5653   90.8718   10.3129 C.3     1  UNL1        0.0065
     10 C          63.0477   90.5471   11.6956 C.3     1  UNL1        0.0224
     11 C          62.9624   89.1402   12.2086 C.3     1  UNL1        0.0981
     12 C          64.1365   87.5114   13.8574 C.3     1  UNL1        0.0741
     13 C          63.9939   86.8458   15.1941 C.3     1  UNL1        0.0347
     14 C          64.5054   85.4502   15.3955 C.3     1  UNL1        0.0736
     15 N          63.8960   84.3108   14.6338 N.3     1  UNL1       -0.2703
     16 C          62.7400   83.5526   15.2159 C.3     1  UNL1        0.0894
     17 C          62.1305   82.4132   14.4541 C.3     1  UNL1        0.0862
     18 N          62.6770   82.0320   13.1103 N.3     1  UNL1       -0.2951
     19 C          63.8330   82.7901   12.5281 C.3     1  UNL1        0.0862
     20 C          64.4425   83.9295   13.2898 C.3     1  UNL1        0.0894
     21 H          61.9074   82.1126   12.4457 H       1  UNL1        0.1233
     22 C          63.2354   89.7950   14.7080 C.3     1  UNL1        0.1189
     23 C          64.3429   90.7241   15.1081 C.ar    1  UNL1        0.0752
     24 C          65.6378   90.7176   14.3508 C.ar    1  UNL1        0.0161
     25 C          66.7453   91.6467   14.7510 C.ar    1  UNL1        0.0027
     26 C          68.0401   91.6402   13.9937 C.ar    1  UNL1        0.0001
     27 C          69.1477   92.5693   14.3938 C.ar    1  UNL1        0.0000
     28 C          68.9604   93.5049   15.5512 C.ar    1  UNL1        0.0000
     29 C          67.6655   93.5114   16.3085 C.ar    1  UNL1        0.0015
     30 C          66.5580   92.5823   15.9084 C.ar    1  UNL1        0.0192
     31 C          65.2633   92.5888   16.6656 C.ar    1  UNL1        0.0984
     32 N          64.1557   91.6597   16.2655 N.ar    1  UNL1       -0.2468
@<TRIPOS>BOND
     1     2     3   ar
     2     3     4   ar
     3     4     5   ar
     4     5     6   ar
     5     6     7   ar
     6     6     8    1
     7     8     9    1
     8     9    10    1
     9    10    11    1
    10    11     1    1
    11     1    12    1
    12    12    13    1
    13    13    14    1
    14    14    15    1
    15    15    16    1
    16    16    17    1
    17    17    18    1
    18    18    19    1
    19    19    20    1
    20     1    22    1
    21    22    23    1
    22    23    24   ar
    23    24    25   ar
    24    25    26   ar
    25    26    27   ar
    26    27    28   ar
    27    28    29   ar
    28    29    30   ar
    29    30    31   ar
    30    31    32   ar
    31     7     2   ar
    32    20    15    1
    33    32    23   ar
    34    11     5    1
    35    30    25   ar
    36    18    21    1
@<TRIPOS>MOLECULE
*****
 32 36 0 0 0
SMALL
GASTEIGER

@<TRIPOS>ATOM
      1 N          62.9088   90.1600   12.8894 N.3     1  UNL1       -0.2640
      2 C          66.7249   93.1771   15.2525 C.ar    1  UNL1        0.0203
      3 C          65.7094   92.1979   15.7623 C.ar    1  UNL1        0.0985
      4 N          64.7759   91.5186   14.8046 N.ar    1  UNL1       -0.2471
      5 C          64.8579   91.8185   13.3372 C.ar    1  UNL1        0.0695
      6 C          65.8734   92.7976   12.8275 C.ar    1  UNL1       -0.0073
      7 C          66.8069   93.4769   13.7851 C.ar    1  UNL1       -0.0015
      8 C          65.9554   93.0975   11.3600 C.3     1  UNL1        0.0277
      9 C          65.0219   92.4182   10.4024 C.3     1  UNL1        0.0065
     10 C          64.0063   91.4390   10.9122 C.3     1  UNL1        0.0224
     11 C          63.9243   91.1391   12.3796 C.3     1  UNL1        0.0981
     12 C          63.2661   89.2199   14.0023 C.3     1  UNL1        0.0741
     13 C          64.1880   88.0655   13.7421 C.3     1  UNL1        0.0347
     14 C          64.2816   86.9425   14.7321 C.3     1  UNL1        0.0736
     15 N          63.6838   85.6055   14.4083 N.3     1  UNL1       -0.2703
     16 C          63.3750   84.6354   15.5099 C.3     1  UNL1        0.0894
     17 C          62.7772   83.2982   15.1861 C.3     1  UNL1        0.0862
     18 N          62.4883   82.9313   13.7607 N.3     1  UNL1       -0.2951
     19 C          62.7971   83.9014   12.6591 C.3     1  UNL1        0.0862
     20 C          63.3948   85.2384   12.9828 C.3     1  UNL1        0.0894
     21 H          61.4898   82.7305   13.7049 H       1  UNL1        0.1233
     22 C          61.5359   90.1209   12.2862 C.3     1  UNL1        0.1189
     23 C          61.2472   89.2002   11.1378 C.ar    1  UNL1        0.0752
     24 C          62.2254   88.1218   10.7768 C.ar    1  UNL1        0.0161
     25 C          61.9367   87.2011    9.6284 C.ar    1  UNL1        0.0027
     26 C          62.9149   86.1228    9.2674 C.ar    1  UNL1        0.0001
     27 C          62.6262   85.2020    8.1190 C.ar    1  UNL1        0.0000
     28 C          61.3593   85.3596    7.3316 C.ar    1  UNL1        0.0000
     29 C          60.3810   86.4379    7.6926 C.ar    1  UNL1        0.0015
     30 C          60.6698   87.3586    8.8410 C.ar    1  UNL1        0.0192
     31 C          59.6915   88.4369    9.2020 C.ar    1  UNL1        0.0984
     32 N          59.9802   89.3577   10.3504 N.ar    1  UNL1       -0.2468
@<TRIPOS>BOND
     1     2     3   ar
     2     3     4   ar
     3     4     5   ar
     4     5     6   ar
     5     6     7   ar
     6     6     8    1
     7     8     9    1
     8     9    10    1
     9    10    11    1
    10    11     1    1
    11     1    12    1
    12    12    13    1
    13    13    14    1
    14    14    15    1
    15    15    16    1
    16    16    17    1
    17    17    18    1
    18    18    19    1
    19    19    20    1
    20     1    22    1
    21    22    23    1
    22    23    24   ar
    23    24    25   ar
    24    25    26   ar
    25    26    27   ar
    26    27    28   ar
    27    28    29   ar
    28    29    30   ar
    29    30    31   ar
    30    31    32   ar
    31     7     2   ar
    32    20    15    1
    33    32    23   ar
    34    11     5    1
    35    30    25   ar
    36    18    21    1
@<TRIPOS>MOLECULE
*****
 32 36 0 0 0
SMALL
GASTEIGER

@<TRIPOS>ATOM
      1 N          62.7448   89.8784   12.1583 N.3     1  UNL1       -0.2640
      2 C          63.5667   84.6034   13.0238 C.ar    1  UNL1        0.0203
      3 C          63.8765   85.8462   13.8046 C.ar    1  UNL1        0.0985
      4 N          63.4993   87.1902   13.2558 N.ar    1  UNL1       -0.2471
      5 C          62.8122   87.2916   11.9263 C.ar    1  UNL1        0.0695
      6 C          62.5024   86.0489   11.1456 C.ar    1  UNL1       -0.0073
      7 C          62.8796   84.7048   11.6943 C.ar    1  UNL1       -0.0015
      8 C          61.8153   86.1502    9.8160 C.3     1  UNL1        0.0277
      9 C          61.4380   87.4943    9.2673 C.3     1  UNL1        0.0065
     10 C          61.7479   88.7371   10.0481 C.3     1  UNL1        0.0224
     11 C          62.4350   88.6357   11.3776 C.3     1  UNL1        0.0981
     12 C          62.8990   91.1910   11.4488 C.3     1  UNL1        0.0741
     13 C          64.2229   91.5715   10.8549 C.3     1  UNL1        0.0347
     14 C          64.9362   92.7996   11.3376 C.3     1  UNL1        0.0736
     15 N          66.1411   93.3053   10.6011 N.3     1  UNL1       -0.2703
     16 C          67.2545   92.3640   10.2487 C.3     1  UNL1        0.0894
     17 C          68.4594   92.8698    9.5121 C.3     1  UNL1        0.0862
     18 N          68.5509   94.3168    9.1280 N.3     1  UNL1       -0.2951
     19 C          67.4374   95.2582    9.4805 C.3     1  UNL1        0.0862
     20 C          66.2326   94.7525   10.2170 C.3     1  UNL1        0.0894
     21 H          68.6514   94.3464    8.1134 H       1  UNL1        0.1233
     22 C          62.9004   89.8086   13.6487 C.3     1  UNL1        0.1189
     23 C          63.9610   90.6208   14.3308 C.ar    1  UNL1        0.0752
     24 C          65.3409   90.6943   13.7472 C.ar    1  UNL1        0.0161
     25 C          66.4015   91.5065   14.4294 C.ar    1  UNL1        0.0027
     26 C          67.7813   91.5799   13.8458 C.ar    1  UNL1        0.0001
     27 C          68.8420   92.3922   14.5280 C.ar    1  UNL1        0.0000
     28 C          68.5227   93.1310   15.7938 C.ar    1  UNL1        0.0000
     29 C          67.1428   93.0576   16.3774 C.ar    1  UNL1        0.0015
     30 C          66.0823   92.2453   15.6952 C.ar    1  UNL1        0.0192
     31 C          64.7024   92.1719   16.2788 C.ar    1  UNL1        0.0984
     32 N          63.6418   91.3596   15.5966 N.ar    1  UNL1       -0.2468
@<TRIPOS>BOND
     1     2     3   ar
     2     3     4   ar
     3     4     5   ar
     4     5     6   ar
     5     6     7   ar
     6     6     8    1
     7     8     9    1
     8     9    10    1
     9    10    11    1
    10    11     1    1
    11     1    12    1
    12    12    13    1
    13    13    14    1
    14    14    15    1
    15    15    16    1
    16    16    17    1
    17    17    18    1
    18    18    19    1
    19    19    20    1
    20     1    22    1
    21    22    23    1
    22    23    24   ar
    23    24    25   ar
    24    25    26   ar
    25    26    27   ar
    26    27    28   ar
    27    28    29   ar
    28    29    30   ar
    29    30    31   ar
    30    31    32   ar
    31     7     2   ar
    32    20    15    1
    33    32    23   ar
    34    11     5    1
    35    30    25   ar
    36    18    21    1
@<TRIPOS>MOLECULE
*****
 32 36 0 0 0
SMALL
GASTEIGER

@<TRIPOS>ATOM
      1 N          61.7505   87.7832   11.0995 N.3     1  UNL1       -0.2640
      2 C          62.5445   84.4952    6.8795 C.ar    1  UNL1        0.0203
      3 C          63.3702   84.8731    8.0734 C.ar    1  UNL1        0.0985
      4 N          62.8303   85.8431    9.0821 N.ar    1  UNL1       -0.2471
      5 C          61.4647   86.4353    8.8969 C.ar    1  UNL1        0.0695
      6 C          60.6390   86.0574    7.7031 C.ar    1  UNL1       -0.0073
      7 C          61.1789   85.0874    6.6944 C.ar    1  UNL1       -0.0015
      8 C          59.2733   86.6496    7.5179 C.3     1  UNL1        0.0277
      9 C          58.7333   87.6197    8.5266 C.3     1  UNL1        0.0065
     10 C          59.5591   87.9975    9.7205 C.3     1  UNL1        0.0224
     11 C          60.9248   87.4054    9.9057 C.3     1  UNL1        0.0981
     12 C          62.7191   86.7981   11.6837 C.3     1  UNL1        0.0741
     13 C          62.2128   85.5505   12.3450 C.3     1  UNL1        0.0347
     14 C          63.1775   84.5957   12.9836 C.3     1  UNL1        0.0736
     15 N          62.8532   83.1327   13.0479 N.3     1  UNL1       -0.2703
     16 C          63.2672   82.2228   11.9295 C.3     1  UNL1        0.0894
     17 C          62.9429   80.7597   11.9939 C.3     1  UNL1        0.0862
     18 N          62.2045   80.2064   13.1766 N.3     1  UNL1       -0.2951
     19 C          61.7905   81.1163   14.2949 C.3     1  UNL1        0.0862
     20 C          62.1148   82.5794   14.2306 C.3     1  UNL1        0.0894
     21 H          62.8015   79.4884   13.5868 H       1  UNL1        0.1233
     22 C          61.6076   89.1463   11.7093 C.3     1  UNL1        0.1189
     23 C          62.7529   89.7545   12.4630 C.ar    1  UNL1        0.0752
     24 C          63.5203   90.8975   11.8672 C.ar    1  UNL1        0.0161
     25 C          64.6657   91.5057   12.6210 C.ar    1  UNL1        0.0027
     26 C          65.4330   92.6486   12.0252 C.ar    1  UNL1        0.0001
     27 C          66.5784   93.2569   12.7790 C.ar    1  UNL1        0.0000
     28 C          66.9564   92.7223   14.1285 C.ar    1  UNL1        0.0000
     29 C          66.1890   91.5793   14.7243 C.ar    1  UNL1        0.0015
     30 C          65.0437   90.9711   13.9705 C.ar    1  UNL1        0.0192
     31 C          64.2764   89.8282   14.5663 C.ar    1  UNL1        0.0984
     32 N          63.1310   89.2199   13.8125 N.ar    1  UNL1       -0.2468
@<TRIPOS>BOND
     1     2     3   ar
     2     3     4   ar
     3     4     5   ar
     4     5     6   ar
     5     6     7   ar
     6     6     8    1
     7     8     9    1
     8     9    10    1
     9    10    11    1
    10    11     1    1
    11     1    12    1
    12    12    13    1
    13    13    14    1
    14    14    15    1
    15    15    16    1
    16    16    17    1
    17    17    18    1
    18    18    19    1
    19    19    20    1
    20     1    22    1
    21    22    23    1
    22    23    24   ar
    23    24    25   ar
    24    25    26   ar
    25    26    27   ar
    26    27    28   ar
    27    28    29   ar
    28    29    30   ar
    29    30    31   ar
    30    31    32   ar
    31     7     2   ar
    32    20    15    1
    33    32    23   ar
    34    11     5    1
    35    30    25   ar
    36    18    21    1
@<TRIPOS>MOLECULE
*****
 32 36 0 0 0
SMALL
GASTEIGER

@<TRIPOS>ATOM
      1 N          63.3897   88.1607   13.1327 N.3     1  UNL1       -0.2640
      2 C          60.1218   89.5416    9.0505 C.ar    1  UNL1        0.0203
      3 C          60.7943   90.3093   10.1498 C.ar    1  UNL1        0.0985
      4 N          61.6594   89.5931   11.1441 N.ar    1  UNL1       -0.2471
      5 C          61.8521   88.1093   11.0391 C.ar    1  UNL1        0.0695
      6 C          61.1796   87.3416    9.9399 C.ar    1  UNL1       -0.0073
      7 C          60.3145   88.0578    8.9456 C.ar    1  UNL1       -0.0015
      8 C          61.3723   85.8577    9.8348 C.3     1  UNL1        0.0277
      9 C          62.2374   85.1415   10.8291 C.3     1  UNL1        0.0065
     10 C          62.9099   85.9092   11.9284 C.3     1  UNL1        0.0224
     11 C          62.7173   87.3931   12.0334 C.3     1  UNL1        0.0981
     12 C          64.3145   87.4575   14.0815 C.3     1  UNL1        0.0741
     13 C          63.7918   86.9272   15.3837 C.3     1  UNL1        0.0347
     14 C          64.1725   85.5498   15.8395 C.3     1  UNL1        0.0736
     15 N          63.7851   84.3547   15.0199 N.3     1  UNL1       -0.2703
     16 C          62.4753   83.6674   15.2685 C.3     1  UNL1        0.0894
     17 C          62.0880   82.4723   14.4488 C.3     1  UNL1        0.0862
     18 N          63.0105   81.9646   13.3806 N.3     1  UNL1       -0.2951
     19 C          64.3204   82.6520   13.1320 C.3     1  UNL1        0.0862
     20 C          64.7077   83.8470   13.9516 C.3     1  UNL1        0.0894
     21 H          62.4907   81.9954   12.5035 H       1  UNL1        0.1233
     22 C          63.1374   89.6317   13.2832 C.3     1  UNL1        0.1189
     23 C          64.0969   90.4814   14.0625 C.ar    1  UNL1        0.0752
     24 C          65.4732   90.7431   13.5263 C.ar    1  UNL1        0.0161
     25 C          66.4327   91.5928   14.3056 C.ar    1  UNL1        0.0027
     26 C          67.8089   91.8545   13.7693 C.ar    1  UNL1        0.0001
     27 C          68.7685   92.7042   14.5487 C.ar    1  UNL1        0.0000
     28 C          68.3518   93.2921   15.8643 C.ar    1  UNL1        0.0000
     29 C          66.9756   93.0303   16.4005 C.ar    1  UNL1        0.0015
     30 C          66.0161   92.1807   15.6212 C.ar    1  UNL1        0.0192
     31 C          64.6399   91.9189   16.1575 C.ar    1  UNL1        0.0984
     32 N          63.6803   91.0693   15.3781 N.ar    1  UNL1       -0.2468
@<TRIPOS>BOND
     1     2     3   ar
     2     3     4   ar
     3     4     5   ar
     4     5     6   ar
     5     6     7   ar
     6     6     8    1
     7     8     9    1
     8     9    10    1
     9    10    11    1
    10    11     1    1
    11     1    12    1
    12    12    13    1
    13    13    14    1
    14    14    15    1
    15    15    16    1
    16    16    17    1
    17    17    18    1
    18    18    19    1
    19    19    20    1
    20     1    22    1
    21    22    23    1
    22    23    24   ar
    23    24    25   ar
    24    25    26   ar
    25    26    27   ar
    26    27    28   ar
    27    28    29   ar
    28    29    30   ar
    29    30    31   ar
    30    31    32   ar
    31     7     2   ar
    32    20    15    1
    33    32    23   ar
    34    11     5    1
    35    30    25   ar
    36    18    21    1
@<TRIPOS>MOLECULE
*****
 32 36 0 0 0
SMALL
GASTEIGER

@<TRIPOS>ATOM
      1 N          62.5321   89.6478   12.5514 N.3     1  UNL1       -0.2640
      2 C          66.2633   93.4088   11.4639 C.ar    1  UNL1        0.0203
      3 C          65.2916   92.6343   10.6237 C.ar    1  UNL1        0.0985
      4 N          64.3718   91.6388   11.2663 N.ar    1  UNL1       -0.2471
      5 C          64.4236   91.4178   12.7490 C.ar    1  UNL1        0.0695
      6 C          65.3953   92.1924   13.5891 C.ar    1  UNL1       -0.0073
      7 C          66.3151   93.1879   12.9466 C.ar    1  UNL1       -0.0015
      8 C          65.4471   91.9715   15.0719 C.3     1  UNL1        0.0277
      9 C          64.5273   90.9760   15.7145 C.3     1  UNL1        0.0065
     10 C          63.5556   90.2014   14.8742 C.3     1  UNL1        0.0224
     11 C          63.5038   90.4223   13.3915 C.3     1  UNL1        0.0981
     12 C          61.0959   90.0746   12.4799 C.3     1  UNL1        0.0741
     13 C          60.1360   89.3328   11.5975 C.3     1  UNL1        0.0347
     14 C          60.1468   89.5650   10.1157 C.3     1  UNL1        0.0736
     15 N          60.0496   88.4019    9.1735 N.3     1  UNL1       -0.2703
     16 C          60.6533   87.0808    9.5481 C.3     1  UNL1        0.0894
     17 C          60.5561   85.9177    8.6058 C.3     1  UNL1        0.0862
     18 N          59.8552   86.0757    7.2891 N.3     1  UNL1       -0.2951
     19 C          59.2516   87.3968    6.9145 C.3     1  UNL1        0.0862
     20 C          59.3487   88.5599    7.8567 C.3     1  UNL1        0.0894
     21 H          59.0989   85.3915    7.2741 H       1  UNL1        0.1233
     22 C          62.9966   88.4464   11.7827 C.3     1  UNL1        0.1189
     23 C          63.2165   87.1422   12.4902 C.ar    1  UNL1        0.0752
     24 C          62.7819   85.8580   11.8483 C.ar    1  UNL1        0.0161
     25 C          63.0018   84.5538   12.5558 C.ar    1  UNL1        0.0027
     26 C          62.5673   83.2697   11.9138 C.ar    1  UNL1        0.0001
     27 C          62.7871   81.9654   12.6214 C.ar    1  UNL1        0.0000
     28 C          63.4415   81.9453   13.9710 C.ar    1  UNL1        0.0000
     29 C          63.8760   83.2296   14.6130 C.ar    1  UNL1        0.0015
     30 C          63.6562   84.5337   13.9054 C.ar    1  UNL1        0.0192
     31 C          64.0907   85.8178   14.5474 C.ar    1  UNL1        0.0984
     32 N          63.8709   87.1221   13.8398 N.ar    1  UNL1       -0.2468
@<TRIPOS>BOND
     1     2     3   ar
     2     3     4   ar
     3     4     5   ar
     4     5     6   ar
     5     6     7   ar
     6     6     8    1
     7     8     9    1
     8     9    10    1
     9    10    11    1
    10    11     1    1
    11     1    12    1
    12    12    13    1
    13    13    14    1
    14    14    15    1
    15    15    16    1
    16    16    17    1
    17    17    18    1
    18    18    19    1
    19    19    20    1
    20     1    22    1
    21    22    23    1
    22    23    24   ar
    23    24    25   ar
    24    25    26   ar
    25    26    27   ar
    26    27    28   ar
    27    28    29   ar
    28    29    30   ar
    29    30    31   ar
    30    31    32   ar
    31     7     2   ar
    32    20    15    1
    33    32    23   ar
    34    11     5    1
    35    30    25   ar
    36    18    21    1
@<TRIPOS>MOLECULE
*****
 32 36 0 0 0
SMALL
GASTEIGER

@<TRIPOS>ATOM
      1 N          63.4980   90.4594   11.8652 N.3     1  UNL1       -0.2640
      2 C          66.4840   93.0214   15.5760 C.ar    1  UNL1        0.0203
      3 C          65.5122   91.8801   15.6302 C.ar    1  UNL1        0.0985
      4 N          64.8408   91.4065   14.3752 N.ar    1  UNL1       -0.2471
      5 C          65.1412   92.0742   13.0660 C.ar    1  UNL1        0.0695
      6 C          66.1131   93.2155   13.0119 C.ar    1  UNL1       -0.0073
      7 C          66.7845   93.6891   14.2669 C.ar    1  UNL1       -0.0015
      8 C          66.4136   93.8832   11.7027 C.3     1  UNL1        0.0277
      9 C          65.7422   93.4096   10.4477 C.3     1  UNL1        0.0065
     10 C          64.7703   92.2683   10.5019 C.3     1  UNL1        0.0224
     11 C          64.4699   91.6006   11.8111 C.3     1  UNL1        0.0981
     12 C          62.8643   89.9534   10.6033 C.3     1  UNL1        0.0741
     13 C          61.4037   90.1852   10.3524 C.3     1  UNL1        0.0347
     14 C          60.4273   89.0575   10.5101 C.3     1  UNL1        0.0736
     15 N          60.3536   87.9784    9.4708 N.3     1  UNL1       -0.2703
     16 C          59.1140   87.8195    8.6413 C.3     1  UNL1        0.0894
     17 C          59.0403   86.7404    7.6019 C.3     1  UNL1        0.0862
     18 N          60.2062   85.8202    7.3922 N.3     1  UNL1       -0.2951
     19 C          61.4458   85.9792    8.2217 C.3     1  UNL1        0.0862
     20 C          61.5195   87.0582    9.2610 C.3     1  UNL1        0.0894
     21 H          60.4892   85.9211    6.4175 H       1  UNL1        0.1233
     22 C          63.1598   89.8240   13.1813 C.3     1  UNL1        0.1189
     23 C          63.4703   88.3755   13.4167 C.ar    1  UNL1        0.0752
     24 C          62.9866   87.3377   12.4476 C.ar    1  UNL1        0.0161
     25 C          63.2970   85.8892   12.6830 C.ar    1  UNL1        0.0027
     26 C          62.8133   84.8515   11.7139 C.ar    1  UNL1        0.0001
     27 C          63.1237   83.4029   11.9492 C.ar    1  UNL1        0.0000
     28 C          63.9179   82.9921   13.1536 C.ar    1  UNL1        0.0000
     29 C          64.4017   84.0299   14.1227 C.ar    1  UNL1        0.0015
     30 C          64.0912   85.4784   13.8873 C.ar    1  UNL1        0.0192
     31 C          64.5749   86.5162   14.8564 C.ar    1  UNL1        0.0984
     32 N          64.2645   87.9647   14.6211 N.ar    1  UNL1       -0.2468
@<TRIPOS>BOND
     1     2     3   ar
     2     3     4   ar
     3     4     5   ar
     4     5     6   ar
     5     6     7   ar
     6     6     8    1
     7     8     9    1
     8     9    10    1
     9    10    11    1
    10    11     1    1
    11     1    12    1
    12    12    13    1
    13    13    14    1
    14    14    15    1
    15    15    16    1
    16    16    17    1
    17    17    18    1
    18    18    19    1
    19    19    20    1
    20     1    22    1
    21    22    23    1
    22    23    24   ar
    23    24    25   ar
    24    25    26   ar
    25    26    27   ar
    26    27    28   ar
    27    28    29   ar
    28    29    30   ar
    29    30    31   ar
    30    31    32   ar
    31     7     2   ar
    32    20    15    1
    33    32    23   ar
    34    11     5    1
    35    30    25   ar
    36    18    21    1
@<TRIPOS>MOLECULE
*****
 32 36 0 0 0
SMALL
GASTEIGER

@<TRIPOS>ATOM
      1 N          63.6270   89.0418   14.3705 N.3     1  UNL1       -0.2640
      2 C          63.9138   83.6514   14.7041 C.ar    1  UNL1        0.0203
      3 C          64.1364   84.6382   13.5966 C.ar    1  UNL1        0.0985
      4 N          63.9666   86.1061   13.8545 N.ar    1  UNL1       -0.2471
      5 C          63.5742   86.5871   15.2200 C.ar    1  UNL1        0.0695
      6 C          63.3516   85.6003   16.3275 C.ar    1  UNL1       -0.0073
      7 C          63.5214   84.1325   16.0695 C.ar    1  UNL1       -0.0015
      8 C          62.9592   86.0814   17.6931 C.3     1  UNL1        0.0277
      9 C          62.7894   87.5492   17.9510 C.3     1  UNL1        0.0065
     10 C          63.0120   88.5360   16.8434 C.3     1  UNL1        0.0224
     11 C          63.4044   88.0550   15.4780 C.3     1  UNL1        0.0981
     12 C          63.5417   90.5133   14.6486 C.3     1  UNL1        0.0741
     13 C          64.7610   91.2640   15.0956 C.3     1  UNL1        0.0347
     14 C          65.9102   91.4582   14.1513 C.3     1  UNL1        0.0736
     15 N          65.7723   92.3898   12.9837 N.3     1  UNL1       -0.2703
     16 C          65.0336   91.9483   11.7552 C.3     1  UNL1        0.0894
     17 C          64.8957   92.8799   10.5876 C.3     1  UNL1        0.0862
     18 N          65.4965   94.2529   10.6486 N.3     1  UNL1       -0.2951
     19 C          66.2352   94.6944   11.8772 C.3     1  UNL1        0.0862
     20 C          66.3731   93.7629   13.0447 C.3     1  UNL1        0.0894
     21 H          64.7329   94.9148   10.5104 H       1  UNL1        0.1233
     22 C          63.9349   88.5571   12.9847 C.3     1  UNL1        0.1189
     23 C          62.9101   88.6925   11.8978 C.ar    1  UNL1        0.0752
     24 C          62.4822   87.4861   11.1157 C.ar    1  UNL1        0.0161
     25 C          61.4574   87.6215   10.0288 C.ar    1  UNL1        0.0027
     26 C          61.0296   86.4151    9.2469 C.ar    1  UNL1        0.0001
     27 C          60.0048   86.5505    8.1599 C.ar    1  UNL1        0.0000
     28 C          59.4077   87.8924    7.8550 C.ar    1  UNL1        0.0000
     29 C          59.8356   89.0988    8.6370 C.ar    1  UNL1        0.0015
     30 C          60.8604   88.9634    9.7239 C.ar    1  UNL1        0.0192
     31 C          61.2882   90.1698   10.5059 C.ar    1  UNL1        0.0984
     32 N          62.3130   90.0344   11.5928 N.ar    1  UNL1       -0.2468
@<TRIPOS>BOND
     1     2     3   ar
     2     3     4   ar
     3     4     5   ar
     4     5     6   ar
     5     6     7   ar
     6     6     8    1
     7     8     9    1
     8     9    10    1
     9    10    11    1
    10    11     1    1
    11     1    12    1
    12    12    13    1
    13    13    14    1
    14    14    15    1
    15    15    16    1
    16    16    17    1
    17    17    18    1
    18    18    19    1
    19    19    20    1
    20     1    22    1
    21    22    23    1
    22    23    24   ar
    23    24    25   ar
    24    25    26   ar
    25    26    27   ar
    26    27    28   ar
    27    28    29   ar
    28    29    30   ar
    29    30    31   ar
    30    31    32   ar
    31     7     2   ar
    32    20    15    1
    33    32    23   ar
    34    11     5    1
    35    30    25   ar
    36    18    21    1
