@<TRIPOS>MOLECULE
*****
 27 30 0 0 0
SMALL
GASTEIGER

@<TRIPOS>ATOM
      1 C          64.2485   91.3091   12.8427 C.ar    1  UNL1        0.1384
      2 C          63.4890   90.8020   11.6527 C.ar    1  UNL1        0.0400
      3 C          63.1220   89.3505   11.5601 C.ar    1  UNL1        0.0397
      4 C          63.5145   88.4062   12.6575 C.ar    1  UNL1        0.1344
      5 C          64.2739   88.9133   13.8475 C.ar    1  UNL1        0.0149
      6 C          64.6409   90.3648   13.9400 C.ar    1  UNL1        0.0356
      7 C          64.6664   87.9690   14.9448 C.3     1  UNL1        0.0331
      8 C          64.2994   86.5175   14.8522 C.3     1  UNL1        0.0449
      9 C          63.5399   86.0104   13.6623 C.3     1  UNL1        0.1361
     10 C          63.9324   85.0661   14.7596 C.3     1  UNL1        0.0574
     11 C          63.5653   83.6146   14.6670 C.3     1  UNL1        0.0756
     12 N          62.8059   83.1075   13.4771 N.3     1  UNL1       -0.2737
     13 C          62.4134   84.0518   12.3797 C.3     1  UNL1        0.0756
     14 C          62.7804   85.5032   12.4723 C.3     1  UNL1        0.0574
     15 O          63.1474   86.9547   12.5649 O.3     1  UNL1       -0.4828
     16 C          62.4389   81.6560   13.3845 C.3     1  UNL1        0.0575
     17 C          62.8471   80.5128   12.5034 C.3     1  UNL1        0.0160
     18 C          61.9198   79.6033   13.2536 C.3     1  UNL1        0.0028
     19 C          61.5115   80.7465   14.1348 C.3     1  UNL1        0.0160
     20 O          64.6155   92.7605   12.9353 O.3     1  UNL1       -0.4754
     21 C          66.0438   93.1854   12.7637 C.3     1  UNL1        0.2072
     22 C          66.7737   92.8663   11.4927 C.3     1  UNL1        0.0726
     23 C          66.3894   93.5513   10.2149 C.3     1  UNL1        0.1547
     24 C          67.3019   96.3597    9.6853 C.3     1  UNL1        0.1760
     25 S          66.8457   94.9556    9.9501 S.O2    1  UNL1       -0.0081
     26 O          65.4606   95.4584   10.2303 O.2     1  UNL1       -0.1729
     27 O          68.2308   94.4527    9.6699 O.2     1  UNL1       -0.1729
@<TRIPOS>BOND
     1    24    25    1
     2    25    26    2
     3    25    27    2
     4    25    23    1
     5    23    22    1
     6    22    21    1
     7    21    20    1
     8    20     1    1
     9     1     2   ar
    10     2     3   ar
    11     3     4   ar
    12     4     5   ar
    13     5     6   ar
    14     5     7    1
    15     7     8    1
    16     8     9    1
    17     9    10    1
    18    10    11    1
    19    11    12    1
    20    12    16    1
    21    16    17    1
    22    17    18    1
    23    18    19    1
    24    12    13    1
    25    13    14    1
    26     9    15    1
    27     6     1   ar
    28    14     9    1
    29    15     4    1
    30    19    16    1
@<TRIPOS>MOLECULE
*****
 27 30 0 0 0
SMALL
GASTEIGER

@<TRIPOS>ATOM
      1 C          64.2532   91.2542   12.9180 C.ar    1  UNL1        0.1384
      2 C          63.5274   90.7508   11.7056 C.ar    1  UNL1        0.0400
      3 C          63.1653   89.2992   11.5972 C.ar    1  UNL1        0.0397
      4 C          63.5291   88.3509   12.7011 C.ar    1  UNL1        0.1344
      5 C          64.2549   88.8543   13.9135 C.ar    1  UNL1        0.0149
      6 C          64.6169   90.3060   14.0219 C.ar    1  UNL1        0.0356
      7 C          64.6186   87.9062   15.0174 C.3     1  UNL1        0.0331
      8 C          64.2565   86.4545   14.9089 C.3     1  UNL1        0.0449
      9 C          63.5307   85.9511   13.6966 C.3     1  UNL1        0.1361
     10 C          63.8945   85.0030   14.8005 C.3     1  UNL1        0.0574
     11 C          63.5324   83.5514   14.6920 C.3     1  UNL1        0.0756
     12 N          62.8066   83.0480   13.4797 N.3     1  UNL1       -0.2737
     13 C          62.4429   83.9962   12.3758 C.3     1  UNL1        0.0756
     14 C          62.8049   85.4477   12.4842 C.3     1  UNL1        0.0574
     15 O          63.1670   86.8994   12.5927 O.3     1  UNL1       -0.4828
     16 C          62.4446   81.5963   13.3712 C.3     1  UNL1        0.0575
     17 C          61.5531   80.6653   14.1383 C.3     1  UNL1        0.0160
     18 C          61.9326   79.5434   13.2178 C.3     1  UNL1        0.0028
     19 C          62.8241   80.4744   12.4507 C.3     1  UNL1        0.0160
     20 O          64.6152   92.7057   13.0265 O.3     1  UNL1       -0.4754
     21 C          66.0127   93.1553   12.7180 C.3     1  UNL1        0.2072
     22 C          67.1600   92.2027   12.8803 C.3     1  UNL1        0.0726
     23 C          67.6423   91.8364   14.2525 C.3     1  UNL1        0.1547
     24 C          68.8663   93.9283   16.0204 C.3     1  UNL1        0.1760
     25 S          68.2543   92.8824   15.1365 S.O2    1  UNL1       -0.0081
     26 O          66.9675   92.9905   15.8995 O.2     1  UNL1       -0.1729
     27 O          69.5412   92.7743   14.3735 O.2     1  UNL1       -0.1729
@<TRIPOS>BOND
     1    24    25    1
     2    25    26    2
     3    25    27    2
     4    25    23    1
     5    23    22    1
     6    22    21    1
     7    21    20    1
     8    20     1    1
     9     1     2   ar
    10     2     3   ar
    11     3     4   ar
    12     4     5   ar
    13     5     6   ar
    14     5     7    1
    15     7     8    1
    16     8     9    1
    17     9    10    1
    18    10    11    1
    19    11    12    1
    20    12    16    1
    21    16    17    1
    22    17    18    1
    23    18    19    1
    24    12    13    1
    25    13    14    1
    26     9    15    1
    27     6     1   ar
    28    14     9    1
    29    15     4    1
    30    19    16    1
@<TRIPOS>MOLECULE
*****
 27 30 0 0 0
SMALL
GASTEIGER

@<TRIPOS>ATOM
      1 C          64.5184   91.3157   13.3240 C.ar    1  UNL1        0.1384
      2 C          65.0265   90.5944   14.5371 C.ar    1  UNL1        0.0400
      3 C          64.7896   89.1209   14.6877 C.ar    1  UNL1        0.0397
      4 C          64.0445   88.3687   13.6250 C.ar    1  UNL1        0.1344
      5 C          63.5364   89.0900   12.4119 C.ar    1  UNL1        0.0149
      6 C          63.7734   90.5635   12.2615 C.ar    1  UNL1        0.0356
      7 C          62.7914   88.3378   11.3494 C.3     1  UNL1        0.0331
      8 C          62.5545   86.8642   11.4998 C.3     1  UNL1        0.0449
      9 C          63.0625   86.1429   12.7129 C.3     1  UNL1        0.1361
     10 C          62.3175   85.3908   11.6504 C.3     1  UNL1        0.0574
     11 C          62.0806   83.9173   11.8009 C.3     1  UNL1        0.0756
     12 N          62.5886   83.1960   13.0140 N.3     1  UNL1       -0.2737
     13 C          63.3336   83.9482   14.0766 C.3     1  UNL1        0.0756
     14 C          63.5706   85.4216   13.9260 C.3     1  UNL1        0.0574
     15 O          63.8076   86.8952   13.7756 O.3     1  UNL1       -0.4828
     16 C          62.3516   81.7225   13.1645 C.3     1  UNL1        0.0575
     17 C          61.5749   80.8651   14.1192 C.3     1  UNL1        0.0160
     18 C          62.0165   79.6386   13.3772 C.3     1  UNL1        0.0028
     19 C          62.7933   80.4959   12.4224 C.3     1  UNL1        0.0160
     20 O          64.7554   92.7891   13.1735 O.3     1  UNL1       -0.4754
     21 C          66.1175   93.2957   12.8017 C.3     1  UNL1        0.2072
     22 C          66.7852   92.8037   11.5518 C.3     1  UNL1        0.0726
     23 C          66.4562   93.4305   10.2294 C.3     1  UNL1        0.1547
     24 C          67.3850   96.2167    9.6174 C.3     1  UNL1        0.1760
     25 S          66.9206   94.8236    9.9234 S.O2    1  UNL1       -0.0081
     26 O          68.2962   94.3011    9.6327 O.2     1  UNL1       -0.1729
     27 O          65.5449   95.3461   10.2141 O.2     1  UNL1       -0.1729
@<TRIPOS>BOND
     1    24    25    1
     2    25    26    2
     3    25    27    2
     4    25    23    1
     5    23    22    1
     6    22    21    1
     7    21    20    1
     8    20     1    1
     9     1     2   ar
    10     2     3   ar
    11     3     4   ar
    12     4     5   ar
    13     5     6   ar
    14     5     7    1
    15     7     8    1
    16     8     9    1
    17     9    10    1
    18    10    11    1
    19    11    12    1
    20    12    16    1
    21    16    17    1
    22    17    18    1
    23    18    19    1
    24    12    13    1
    25    13    14    1
    26     9    15    1
    27     6     1   ar
    28    14     9    1
    29    15     4    1
    30    19    16    1
@<TRIPOS>MOLECULE
*****
 27 30 0 0 0
SMALL
GASTEIGER

@<TRIPOS>ATOM
      1 C          64.1939   91.2516   12.9634 C.ar    1  UNL1        0.1384
      2 C          64.7087   90.5894   14.2070 C.ar    1  UNL1        0.0400
      3 C          64.5250   89.1135   14.4018 C.ar    1  UNL1        0.0397
      4 C          63.8265   88.2997   13.3530 C.ar    1  UNL1        0.1344
      5 C          63.3118   88.9619   12.1094 C.ar    1  UNL1        0.0149
      6 C          63.4955   90.4379   11.9146 C.ar    1  UNL1        0.0356
      7 C          62.6133   88.1482   11.0606 C.3     1  UNL1        0.0331
      8 C          62.4296   86.6722   11.2554 C.3     1  UNL1        0.0449
      9 C          62.9444   86.0101   12.4990 C.3     1  UNL1        0.1361
     10 C          62.2459   85.1963   11.4502 C.3     1  UNL1        0.0574
     11 C          62.0622   83.7205   11.6450 C.3     1  UNL1        0.0756
     12 N          62.5770   83.0583   12.8886 N.3     1  UNL1       -0.2737
     13 C          63.2754   83.8720   13.9374 C.3     1  UNL1        0.0756
     14 C          63.4591   85.3479   13.7426 C.3     1  UNL1        0.0574
     15 O          63.6428   86.8238   13.5478 O.3     1  UNL1       -0.4828
     16 C          62.3933   81.5823   13.0834 C.3     1  UNL1        0.0575
     17 C          62.8114   80.3531   12.3322 C.3     1  UNL1        0.0160
     18 C          62.1334   79.4951   13.3589 C.3     1  UNL1        0.0028
     19 C          61.7153   80.7243   14.1101 C.3     1  UNL1        0.0160
     20 O          64.3776   92.7274   12.7686 O.3     1  UNL1       -0.4754
     21 C          65.6564   93.2539   12.1874 C.3     1  UNL1        0.2072
     22 C          66.9232   93.1983   12.9887 C.3     1  UNL1        0.0726
     23 C          66.9178   93.6142   14.4298 C.3     1  UNL1        0.1547
     24 C          68.7892   92.3057   16.3756 C.3     1  UNL1        0.1760
     25 S          67.8535   92.9599   15.4027 S.O2    1  UNL1       -0.0081
     26 O          68.8896   92.8389   14.3249 O.2     1  UNL1       -0.1729
     27 O          66.8174   93.0810   16.4806 O.2     1  UNL1       -0.1729
@<TRIPOS>BOND
     1    24    25    1
     2    25    26    2
     3    25    27    2
     4    25    23    1
     5    23    22    1
     6    22    21    1
     7    21    20    1
     8    20     1    1
     9     1     2   ar
    10     2     3   ar
    11     3     4   ar
    12     4     5   ar
    13     5     6   ar
    14     5     7    1
    15     7     8    1
    16     8     9    1
    17     9    10    1
    18    10    11    1
    19    11    12    1
    20    12    16    1
    21    16    17    1
    22    17    18    1
    23    18    19    1
    24    12    13    1
    25    13    14    1
    26     9    15    1
    27     6     1   ar
    28    14     9    1
    29    15     4    1
    30    19    16    1
@<TRIPOS>MOLECULE
*****
 27 30 0 0 0
SMALL
GASTEIGER

@<TRIPOS>ATOM
      1 C          60.2248   87.9894    9.5606 C.ar    1  UNL1        0.1384
      2 C          60.5205   87.2540   10.8341 C.ar    1  UNL1        0.0400
      3 C          61.5560   87.7823   11.7820 C.ar    1  UNL1        0.0397
      4 C          62.2958   89.0460   11.4565 C.ar    1  UNL1        0.1344
      5 C          62.0000   89.7814   10.1830 C.ar    1  UNL1        0.0149
      6 C          60.9645   89.2530    9.2351 C.ar    1  UNL1        0.0356
      7 C          62.7397   91.0450    9.8575 C.3     1  UNL1        0.0331
      8 C          63.7753   91.5733   10.8055 C.3     1  UNL1        0.0449
      9 C          64.0711   90.8380   12.0790 C.3     1  UNL1        0.1361
     10 C          64.8108   92.1016   11.7534 C.3     1  UNL1        0.0574
     11 C          65.8462   92.6299   12.7014 C.3     1  UNL1        0.0756
     12 N          66.1420   91.8945   13.9749 N.3     1  UNL1       -0.2737
     13 C          65.4023   90.6309   14.3004 C.3     1  UNL1        0.0756
     14 C          64.3668   90.1026   13.3525 C.3     1  UNL1        0.0574
     15 O          63.3313   89.5743   12.4045 O.3     1  UNL1       -0.4828
     16 C          67.1776   92.4228   14.9229 C.3     1  UNL1        0.0575
     17 C          67.1791   92.8531   16.3598 C.3     1  UNL1        0.0160
     18 C          68.6421   93.1700   16.2634 C.3     1  UNL1        0.0028
     19 C          68.6406   92.7397   14.8264 C.3     1  UNL1        0.0160
     20 O          59.1893   87.4611    8.6126 O.3     1  UNL1       -0.4754
     21 C          59.1952   87.8961    7.1770 C.3     1  UNL1        0.2072
     22 C          59.4446   89.3339    6.8300 C.3     1  UNL1        0.0726
     23 C          58.3998   90.1202    6.0952 C.3     1  UNL1        0.1547
     24 C          59.2126   92.3714    4.2865 C.3     1  UNL1        0.1760
     25 S          58.8062   91.2458    5.1908 S.O2    1  UNL1       -0.0081
     26 O          60.2311   90.7812    5.2529 O.2     1  UNL1       -0.1729
     27 O          57.3814   91.7104    5.1287 O.2     1  UNL1       -0.1729
@<TRIPOS>BOND
     1    24    25    1
     2    25    26    2
     3    25    27    2
     4    25    23    1
     5    23    22    1
     6    22    21    1
     7    21    20    1
     8    20     1    1
     9     1     2   ar
    10     2     3   ar
    11     3     4   ar
    12     4     5   ar
    13     5     6   ar
    14     5     7    1
    15     7     8    1
    16     8     9    1
    17     9    10    1
    18    10    11    1
    19    11    12    1
    20    12    16    1
    21    16    17    1
    22    17    18    1
    23    18    19    1
    24    12    13    1
    25    13    14    1
    26     9    15    1
    27     6     1   ar
    28    14     9    1
    29    15     4    1
    30    19    16    1
@<TRIPOS>MOLECULE
*****
 27 30 0 0 0
SMALL
GASTEIGER

@<TRIPOS>ATOM
      1 C          60.2595   88.6575    9.6659 C.ar    1  UNL1        0.1384
      2 C          60.3665   88.0477   11.0322 C.ar    1  UNL1        0.0400
      3 C          61.4039   88.5434   11.9956 C.ar    1  UNL1        0.0397
      4 C          62.3343   89.6490   11.5927 C.ar    1  UNL1        0.1344
      5 C          62.2272   90.2587   10.2264 C.ar    1  UNL1        0.0149
      6 C          61.1898   89.7629    9.2630 C.ar    1  UNL1        0.0356
      7 C          63.1575   91.3642    9.8234 C.3     1  UNL1        0.0331
      8 C          64.1949   91.8600   10.7868 C.3     1  UNL1        0.0449
      9 C          64.3020   91.2503   12.1531 C.3     1  UNL1        0.1361
     10 C          65.2323   92.3557   11.7502 C.3     1  UNL1        0.0574
     11 C          66.2696   92.8515   12.7135 C.3     1  UNL1        0.0756
     12 N          66.3767   92.2417   14.0798 N.3     1  UNL1       -0.2737
     13 C          65.4464   91.1362   14.4827 C.3     1  UNL1        0.0756
     14 C          64.4090   90.6405   13.5194 C.3     1  UNL1        0.0574
     15 O          63.3716   90.1447   12.5560 O.3     1  UNL1       -0.4828
     16 C          67.4141   92.7375   15.0432 C.3     1  UNL1        0.0575
     17 C          68.0562   94.0645   15.3204 C.3     1  UNL1        0.0160
     18 C          68.8812   93.4386   16.4056 C.3     1  UNL1        0.0028
     19 C          68.2391   92.1116   16.1284 C.3     1  UNL1        0.0160
     20 O          59.2221   88.1617    8.7026 O.3     1  UNL1       -0.4754
     21 C          59.2057   86.7181    8.2953 C.3     1  UNL1        0.2072
     22 C          60.4484   86.0781    7.7512 C.3     1  UNL1        0.0726
     23 C          61.7764   86.3551    8.3910 C.3     1  UNL1        0.1547
     24 C          63.5339   84.0788    9.2451 C.3     1  UNL1        0.1760
     25 S          62.6552   85.2169    8.8180 S.O2    1  UNL1       -0.0081
     26 O          62.5026   85.6364   10.2501 O.2     1  UNL1       -0.1729
     27 O          62.8078   84.7974    7.3860 O.2     1  UNL1       -0.1729
@<TRIPOS>BOND
     1    24    25    1
     2    25    26    2
     3    25    27    2
     4    25    23    1
     5    23    22    1
     6    22    21    1
     7    21    20    1
     8    20     1    1
     9     1     2   ar
    10     2     3   ar
    11     3     4   ar
    12     4     5   ar
    13     5     6   ar
    14     5     7    1
    15     7     8    1
    16     8     9    1
    17     9    10    1
    18    10    11    1
    19    11    12    1
    20    12    16    1
    21    16    17    1
    22    17    18    1
    23    18    19    1
    24    12    13    1
    25    13    14    1
    26     9    15    1
    27     6     1   ar
    28    14     9    1
    29    15     4    1
    30    19    16    1
@<TRIPOS>MOLECULE
*****
 27 30 0 0 0
SMALL
GASTEIGER

@<TRIPOS>ATOM
      1 C          63.9003   86.2468   13.6490 C.ar    1  UNL1        0.1384
      2 C          63.9651   87.7454   13.6497 C.ar    1  UNL1        0.0400
      3 C          63.2498   88.5276   12.5884 C.ar    1  UNL1        0.0397
      4 C          62.4697   87.8112   11.5262 C.ar    1  UNL1        0.1344
      5 C          62.4048   86.3126   11.5254 C.ar    1  UNL1        0.0149
      6 C          63.1202   85.5304   12.5869 C.ar    1  UNL1        0.0356
      7 C          61.6247   85.5962   10.4633 C.3     1  UNL1        0.0331
      8 C          60.9094   86.3783    9.4019 C.3     1  UNL1        0.0449
      9 C          60.9742   87.8769    9.4026 C.3     1  UNL1        0.1361
     10 C          60.1941   87.1605    8.3405 C.3     1  UNL1        0.0574
     11 C          59.4788   87.9427    7.2792 C.3     1  UNL1        0.0756
     12 N          59.5436   89.4413    7.2799 N.3     1  UNL1       -0.2737
     13 C          60.3237   90.1577    8.3420 C.3     1  UNL1        0.0756
     14 C          61.0390   89.3755    9.4034 C.3     1  UNL1        0.0574
     15 O          61.7544   88.5934   10.4648 O.3     1  UNL1       -0.4828
     16 C          58.8283   90.2235    6.2185 C.3     1  UNL1        0.0575
     17 C          59.2491   91.1684    5.1322 C.3     1  UNL1        0.0160
     18 C          57.8166   91.3296    4.7175 C.3     1  UNL1        0.0028
     19 C          57.3958   90.3846    5.8038 C.3     1  UNL1        0.0160
     20 O          64.6156   85.4647   14.7103 O.3     1  UNL1       -0.4754
     21 C          63.8490   84.5286   15.5971 C.3     1  UNL1        0.2072
     22 C          63.6990   83.0863   15.2136 C.3     1  UNL1        0.0726
     23 C          62.4074   82.5960   14.6295 C.3     1  UNL1        0.1547
     24 C          62.3333   80.0084   13.1132 C.3     1  UNL1        0.1760
     25 S          62.3703   81.3022   13.8713 S.O2    1  UNL1       -0.0081
     26 O          63.7962   81.5065   13.4531 O.2     1  UNL1       -0.1729
     27 O          60.9444   81.0979   14.2896 O.2     1  UNL1       -0.1729
@<TRIPOS>BOND
     1    24    25    1
     2    25    26    2
     3    25    27    2
     4    25    23    1
     5    23    22    1
     6    22    21    1
     7    21    20    1
     8    20     1    1
     9     1     2   ar
    10     2     3   ar
    11     3     4   ar
    12     4     5   ar
    13     5     6   ar
    14     5     7    1
    15     7     8    1
    16     8     9    1
    17     9    10    1
    18    10    11    1
    19    11    12    1
    20    12    16    1
    21    16    17    1
    22    17    18    1
    23    18    19    1
    24    12    13    1
    25    13    14    1
    26     9    15    1
    27     6     1   ar
    28    14     9    1
    29    15     4    1
    30    19    16    1
@<TRIPOS>MOLECULE
*****
 27 30 0 0 0
SMALL
GASTEIGER

@<TRIPOS>ATOM
      1 C          62.9342   88.9896   16.2521 C.ar    1  UNL1        0.1384
      2 C          63.6778   90.1020   16.9300 C.ar    1  UNL1        0.0400
      3 C          64.3417   91.1688   16.1107 C.ar    1  UNL1        0.0397
      4 C          64.2620   91.1232   14.6135 C.ar    1  UNL1        0.1344
      5 C          63.5184   90.0107   13.9356 C.ar    1  UNL1        0.0149
      6 C          62.8544   88.9439   14.7549 C.ar    1  UNL1        0.0356
      7 C          63.4386   89.9651   12.4384 C.3     1  UNL1        0.0331
      8 C          64.1025   91.0319   11.6191 C.3     1  UNL1        0.0449
      9 C          64.8461   92.1443   12.2970 C.3     1  UNL1        0.1361
     10 C          64.7664   92.0987   10.7999 C.3     1  UNL1        0.0574
     11 C          65.4303   93.1654    9.9806 C.3     1  UNL1        0.0756
     12 N          66.1739   94.2779   10.6585 N.3     1  UNL1       -0.2737
     13 C          66.2536   94.3235   12.1557 C.3     1  UNL1        0.0756
     14 C          65.5897   93.2567   12.9749 C.3     1  UNL1        0.0574
     15 O          64.9258   92.1899   13.7943 O.3     1  UNL1       -0.4828
     16 C          66.8378   95.3447    9.8392 C.3     1  UNL1        0.0575
     17 C          66.9195   96.8407    9.9113 C.3     1  UNL1        0.0160
     18 C          67.7767   96.8533    8.6805 C.3     1  UNL1        0.0028
     19 C          67.6950   95.3572    8.6084 C.3     1  UNL1        0.0160
     20 O          62.2703   87.9228   17.0713 O.3     1  UNL1       -0.4754
     21 C          62.9553   86.6054   17.2843 C.3     1  UNL1        0.2072
     22 C          63.6913   85.9512   16.1528 C.3     1  UNL1        0.0726
     23 C          63.2265   84.6277   15.6215 C.3     1  UNL1        0.1547
     24 C          64.1971   83.6578   12.9536 C.3     1  UNL1        0.1760
     25 S          63.7118   84.1427   14.2875 S.O2    1  UNL1       -0.0081
     26 O          63.4605   85.5008   13.7023 O.2     1  UNL1       -0.1729
     27 O          63.9632   82.7847   14.8727 O.2     1  UNL1       -0.1729
@<TRIPOS>BOND
     1    24    25    1
     2    25    26    2
     3    25    27    2
     4    25    23    1
     5    23    22    1
     6    22    21    1
     7    21    20    1
     8    20     1    1
     9     1     2   ar
    10     2     3   ar
    11     3     4   ar
    12     4     5   ar
    13     5     6   ar
    14     5     7    1
    15     7     8    1
    16     8     9    1
    17     9    10    1
    18    10    11    1
    19    11    12    1
    20    12    16    1
    21    16    17    1
    22    17    18    1
    23    18    19    1
    24    12    13    1
    25    13    14    1
    26     9    15    1
    27     6     1   ar
    28    14     9    1
    29    15     4    1
    30    19    16    1
@<TRIPOS>MOLECULE
*****
 27 30 0 0 0
SMALL
GASTEIGER

@<TRIPOS>ATOM
      1 C          59.4036   90.8698    5.2635 C.ar    1  UNL1        0.1384
      2 C          58.6224   91.9272    4.5413 C.ar    1  UNL1        0.0400
      3 C          59.2861   92.7599    3.4848 C.ar    1  UNL1        0.0397
      4 C          60.7310   92.5351    3.1504 C.ar    1  UNL1        0.1344
      5 C          61.5122   91.4776    3.8726 C.ar    1  UNL1        0.0149
      6 C          60.8485   90.6450    4.9292 C.ar    1  UNL1        0.0356
      7 C          62.9571   91.2528    3.5383 C.3     1  UNL1        0.0331
      8 C          63.6208   92.0854    2.4818 C.3     1  UNL1        0.0449
      9 C          62.8396   93.1429    1.7596 C.3     1  UNL1        0.1361
     10 C          64.2845   92.9181    1.4253 C.3     1  UNL1        0.0574
     11 C          64.9482   93.7507    0.3688 C.3     1  UNL1        0.0756
     12 N          64.1670   94.8082   -0.3534 N.3     1  UNL1       -0.2737
     13 C          62.7221   95.0330   -0.0191 C.3     1  UNL1        0.0756
     14 C          62.0585   94.2003    1.0374 C.3     1  UNL1        0.0574
     15 O          61.3947   93.3677    2.0940 O.3     1  UNL1       -0.4828
     16 C          64.8307   95.6408   -1.4099 C.3     1  UNL1        0.0575
     17 C          64.8491   95.6338   -2.9098 C.3     1  UNL1        0.0160
     18 C          65.7694   96.8184   -2.9040 C.3     1  UNL1        0.0028
     19 C          65.7510   96.8253   -1.4041 C.3     1  UNL1        0.0160
     20 O          58.7400   90.0372    6.3200 O.3     1  UNL1       -0.4754
     21 C          59.5567   89.0994    7.1589 C.3     1  UNL1        0.2072
     22 C          59.1103   87.6800    7.3479 C.3     1  UNL1        0.0726
     23 C          59.4164   86.9618    8.6287 C.3     1  UNL1        0.1547
     24 C          62.2552   86.2943    9.3328 C.3     1  UNL1        0.1760
     25 S          60.8358   86.6280    8.9808 S.O2    1  UNL1       -0.0081
     26 O          60.7256   87.4662   10.2198 O.2     1  UNL1       -0.1729
     27 O          60.9461   85.7898    7.7418 O.2     1  UNL1       -0.1729
@<TRIPOS>BOND
     1    24    25    1
     2    25    26    2
     3    25    27    2
     4    25    23    1
     5    23    22    1
     6    22    21    1
     7    21    20    1
     8    20     1    1
     9     1     2   ar
    10     2     3   ar
    11     3     4   ar
    12     4     5   ar
    13     5     6   ar
    14     5     7    1
    15     7     8    1
    16     8     9    1
    17     9    10    1
    18    10    11    1
    19    11    12    1
    20    12    16    1
    21    16    17    1
    22    17    18    1
    23    18    19    1
    24    12    13    1
    25    13    14    1
    26     9    15    1
    27     6     1   ar
    28    14     9    1
    29    15     4    1
    30    19    16    1
