@<TRIPOS>MOLECULE
*****
 31 34 0 0 0
SMALL
GASTEIGER

@<TRIPOS>ATOM
      1 C          61.8011   90.3061   12.0469 C.2     1  UNL1        0.2459
      2 O          61.3881   89.8583   13.4176 O.2     1  UNL1       -0.2730
      3 N          63.1286   90.9745   11.8444 N.am    1  UNL1       -0.2781
      4 C          63.5415   91.4223   10.4736 C.3     1  UNL1        0.0935
      5 C          64.8690   92.0906   10.2712 C.3     1  UNL1        0.0219
      6 C          65.7836   92.3112   11.4395 C.3     1  UNL1        0.0078
      7 C          65.3707   91.8634   12.8102 C.3     1  UNL1        0.0419
      8 C          64.0432   91.1951   13.0127 C.3     1  UNL1        0.0953
      9 C          66.2853   92.0840   13.9785 C.ar    1  UNL1       -0.0209
     10 C          65.7193   92.4820   15.3094 C.ar    1  UNL1       -0.0042
     11 C          66.6339   92.7025   16.4776 C.ar    1  UNL1       -0.0003
     12 C          68.1144   92.5252   16.3150 C.ar    1  UNL1       -0.0000
     13 C          68.6804   92.1272   14.9842 C.ar    1  UNL1       -0.0003
     14 C          67.7658   91.9066   13.8159 C.ar    1  UNL1       -0.0042
     15 C          60.8865   90.0855   10.8786 C.3     1  UNL1        0.1773
     16 C          58.9452   88.6132   11.7808 C.3     1  UNL1        0.1126
     17 N          60.0577   88.8378   10.8000 N.pl3   1  UNL1       -0.2980
     18 C          60.3415   87.8144    9.7406 C.ar    1  UNL1        0.0491
     19 C          59.2891   87.4712    8.7283 C.ar    1  UNL1        0.0154
     20 C          59.5728   86.4479    7.6689 C.ar    1  UNL1        0.0135
     21 C          60.9089   85.7678    7.6218 C.ar    1  UNL1        0.0683
     22 CL         61.1927   84.7445    6.5624 Cl      1  UNL1       -0.0814
     23 C          61.9613   86.1110    8.6341 C.ar    1  UNL1        0.0694
     24 CL         63.2975   85.4309    8.5869 Cl      1  UNL1       -0.0813
     25 C          61.6776   87.1343    9.6935 C.ar    1  UNL1        0.0268
     26 C          63.6302   90.7473   14.3835 C.3     1  UNL1        0.0924
     27 N          63.7889   89.3100   14.7825 N.3     1  UNL1       -0.2713
     28 C          64.3284   88.2094   13.9178 C.3     1  UNL1        0.0722
     29 C          64.3089   86.9402   14.7171 C.3     1  UNL1        0.0188
     30 C          63.7575   87.2565   16.0758 C.3     1  UNL1        0.0188
     31 C          63.4361   88.7211   16.1161 C.3     1  UNL1        0.0722
@<TRIPOS>BOND
     1    16    17    1
     2    17    15    1
     3    15     1    1
     4     1     2    2
     5     1     3   am
     6     3     4    1
     7     4     5    1
     8     5     6    1
     9     6     7    1
    10     7     9    1
    11     9    10   ar
    12    10    11   ar
    13    11    12   ar
    14    12    13   ar
    15    13    14   ar
    16     7     8    1
    17     8    26    1
    18    26    27    1
    19    27    28    1
    20    28    29    1
    21    29    30    1
    22    30    31    1
    23    17    18    1
    24    18    19   ar
    25    19    20   ar
    26    20    21   ar
    27    21    22    1
    28    21    23   ar
    29    23    24    1
    30    23    25   ar
    31     8     3    1
    32    31    27    1
    33    25    18   ar
    34    14     9   ar
@<TRIPOS>MOLECULE
*****
 31 34 0 0 0
SMALL
GASTEIGER

@<TRIPOS>ATOM
      1 C          64.2676   89.8351   13.4198 C.2     1  UNL1        0.2459
      2 O          65.0581   89.5198   14.6550 O.2     1  UNL1       -0.2730
      3 N          63.5730   88.7352   12.6728 N.am    1  UNL1       -0.2781
      4 C          62.7825   89.0504   11.4376 C.3     1  UNL1        0.0935
      5 C          62.0879   87.9506   10.6908 C.3     1  UNL1        0.0219
      6 C          62.1838   86.5355   11.1791 C.3     1  UNL1        0.0078
      7 C          62.9743   86.2203   12.4142 C.3     1  UNL1        0.0419
      8 C          63.6688   87.3201   13.1611 C.3     1  UNL1        0.0953
      9 C          63.0702   84.8053   12.9025 C.ar    1  UNL1       -0.0209
     10 C          64.1103   83.8851   12.3357 C.ar    1  UNL1       -0.0042
     11 C          64.2062   82.4701   12.8240 C.ar    1  UNL1       -0.0003
     12 C          63.2619   81.9752   13.8791 C.ar    1  UNL1       -0.0000
     13 C          62.2217   82.8953   14.4460 C.ar    1  UNL1       -0.0003
     14 C          62.1259   84.3103   13.9577 C.ar    1  UNL1       -0.0042
     15 C          64.1717   91.2501   12.9315 C.3     1  UNL1        0.1773
     16 C          65.7796   92.4566   14.5774 C.3     1  UNL1        0.1126
     17 N          65.3004   92.2067   13.1781 N.pl3   1  UNL1       -0.2980
     18 C          65.9500   92.9135   12.0254 C.ar    1  UNL1        0.0491
     19 C          65.7153   94.3802   11.8164 C.ar    1  UNL1        0.0154
     20 C          66.3648   95.0869   10.6638 C.ar    1  UNL1        0.0135
     21 C          67.2491   94.3270    9.7202 C.ar    1  UNL1        0.0683
     22 CL         67.8986   95.0337    8.5675 Cl      1  UNL1       -0.0814
     23 C          67.4838   92.8603    9.9292 C.ar    1  UNL1        0.0694
     24 CL         68.3681   92.1003    8.9855 Cl      1  UNL1       -0.0813
     25 C          66.8343   92.1535   11.0818 C.ar    1  UNL1        0.0268
     26 C          64.4594   87.0049   14.3964 C.3     1  UNL1        0.0924
     27 N          63.7780   86.9609   15.7320 N.3     1  UNL1       -0.2713
     28 C          63.5221   85.7307   16.5511 C.3     1  UNL1        0.0722
     29 C          62.8188   86.1488   17.8083 C.3     1  UNL1        0.0188
     30 C          62.6400   87.6375   17.7662 C.3     1  UNL1        0.0188
     31 C          63.2328   88.1394   16.4829 C.3     1  UNL1        0.0722
@<TRIPOS>BOND
     1    16    17    1
     2    17    15    1
     3    15     1    1
     4     1     2    2
     5     1     3   am
     6     3     4    1
     7     4     5    1
     8     5     6    1
     9     6     7    1
    10     7     9    1
    11     9    10   ar
    12    10    11   ar
    13    11    12   ar
    14    12    13   ar
    15    13    14   ar
    16     7     8    1
    17     8    26    1
    18    26    27    1
    19    27    28    1
    20    28    29    1
    21    29    30    1
    22    30    31    1
    23    17    18    1
    24    18    19   ar
    25    19    20   ar
    26    20    21   ar
    27    21    22    1
    28    21    23   ar
    29    23    24    1
    30    23    25   ar
    31     8     3    1
    32    31    27    1
    33    25    18   ar
    34    14     9   ar
@<TRIPOS>MOLECULE
*****
 31 34 0 0 0
SMALL
GASTEIGER

@<TRIPOS>ATOM
      1 C          63.8822   89.5150   13.2375 C.2     1  UNL1        0.2459
      2 O          64.7206   89.2742   14.4578 O.2     1  UNL1       -0.2730
      3 N          63.2608   88.3573   12.5140 N.am    1  UNL1       -0.2781
      4 C          62.4224   88.5982   11.2938 C.3     1  UNL1        0.0935
      5 C          61.8010   87.4404   10.5703 C.3     1  UNL1        0.0219
      6 C          62.0180   86.0418   11.0670 C.3     1  UNL1        0.0078
      7 C          62.8564   85.8009   12.2873 C.3     1  UNL1        0.0419
      8 C          63.4778   86.9587   13.0107 C.3     1  UNL1        0.0953
      9 C          63.0734   84.4023   12.7840 C.ar    1  UNL1       -0.0209
     10 C          62.2069   83.8519   13.8777 C.ar    1  UNL1       -0.0042
     11 C          62.4239   82.4533   14.3744 C.ar    1  UNL1       -0.0003
     12 C          63.5074   81.6050   13.7775 C.ar    1  UNL1       -0.0000
     13 C          64.3739   82.1554   12.6838 C.ar    1  UNL1       -0.0003
     14 C          64.1569   83.5540   12.1871 C.ar    1  UNL1       -0.0042
     15 C          63.6652   90.9137   12.7408 C.3     1  UNL1        0.1773
     16 C          64.9503   92.3864   11.0292 C.3     1  UNL1        0.1126
     17 N          64.8416   91.7781   12.3960 N.pl3   1  UNL1       -0.2980
     18 C          65.9092   92.0343   13.4181 C.ar    1  UNL1        0.0491
     19 C          65.5310   92.4250   14.8160 C.ar    1  UNL1        0.0154
     20 C          66.5986   92.6812   15.8381 C.ar    1  UNL1        0.0135
     21 C          68.0444   92.5465   15.4622 C.ar    1  UNL1        0.0683
     22 CL         69.1121   92.8027   16.4842 Cl      1  UNL1       -0.0814
     23 C          68.4227   92.1558   14.0642 C.ar    1  UNL1        0.0694
     24 CL         69.8686   92.0212   13.6883 Cl      1  UNL1       -0.0813
     25 C          67.3551   91.8996   13.0422 C.ar    1  UNL1        0.0268
     26 C          64.3162   86.7178   14.2310 C.3     1  UNL1        0.0924
     27 N          63.6836   86.7352   15.5910 N.3     1  UNL1       -0.2713
     28 C          63.3274   85.5322   16.4131 C.3     1  UNL1        0.0722
     29 C          62.7198   86.0121   17.6979 C.3     1  UNL1        0.0188
     30 C          62.7005   87.5117   17.6698 C.3     1  UNL1        0.0188
     31 C          63.2962   87.9586   16.3677 C.3     1  UNL1        0.0722
@<TRIPOS>BOND
     1    16    17    1
     2    17    15    1
     3    15     1    1
     4     1     2    2
     5     1     3   am
     6     3     4    1
     7     4     5    1
     8     5     6    1
     9     6     7    1
    10     7     9    1
    11     9    10   ar
    12    10    11   ar
    13    11    12   ar
    14    12    13   ar
    15    13    14   ar
    16     7     8    1
    17     8    26    1
    18    26    27    1
    19    27    28    1
    20    28    29    1
    21    29    30    1
    22    30    31    1
    23    17    18    1
    24    18    19   ar
    25    19    20   ar
    26    20    21   ar
    27    21    22    1
    28    21    23   ar
    29    23    24    1
    30    23    25   ar
    31     8     3    1
    32    31    27    1
    33    25    18   ar
    34    14     9   ar
@<TRIPOS>MOLECULE
*****
 31 34 0 0 0
SMALL
GASTEIGER

@<TRIPOS>ATOM
      1 C          61.2280   89.9437   12.2781 C.2     1  UNL1        0.2459
      2 O          60.9732   89.4902   13.6850 O.2     1  UNL1       -0.2730
      3 N          62.5011   90.6616   11.9404 N.am    1  UNL1       -0.2781
      4 C          62.7559   91.1151   10.5336 C.3     1  UNL1        0.0935
      5 C          64.0289   91.8330   10.1959 C.3     1  UNL1        0.0219
      6 C          65.0472   92.0972   11.2652 C.3     1  UNL1        0.0078
      7 C          64.7924   91.6437   12.6720 C.3     1  UNL1        0.0419
      8 C          63.5194   90.9259   13.0097 C.3     1  UNL1        0.0953
      9 C          65.8107   91.9080   13.7413 C.ar    1  UNL1       -0.0209
     10 C          67.2734   91.8002   13.4271 C.ar    1  UNL1       -0.0042
     11 C          68.2917   92.0645   14.4963 C.ar    1  UNL1       -0.0003
     12 C          67.8473   92.4365   15.8798 C.ar    1  UNL1       -0.0000
     13 C          66.3845   92.5442   16.1940 C.ar    1  UNL1       -0.0003
     14 C          65.3663   92.2800   15.1248 C.ar    1  UNL1       -0.0042
     15 C          60.2097   89.6795   11.2089 C.3     1  UNL1        0.1773
     16 C          60.2502   89.3817    8.6283 C.3     1  UNL1        0.1126
     17 N          60.5834   88.8741    9.9999 N.pl3   1  UNL1       -0.2980
     18 C          61.2904   87.5611   10.1625 C.ar    1  UNL1        0.0491
     19 C          61.4012   86.9320   11.5197 C.ar    1  UNL1        0.0154
     20 C          62.1081   85.6191   11.6823 C.ar    1  UNL1        0.0135
     21 C          62.7041   84.9353   10.4878 C.ar    1  UNL1        0.0683
     22 CL         63.4110   83.6223   10.6503 Cl      1  UNL1       -0.0814
     23 C          62.5933   85.5644    9.1306 C.ar    1  UNL1        0.0694
     24 CL         63.1894   84.8805    7.9360 Cl      1  UNL1       -0.0813
     25 C          61.8864   86.8773    8.9679 C.ar    1  UNL1        0.0268
     26 C          63.2646   90.4723   14.4166 C.3     1  UNL1        0.0924
     27 N          63.5865   89.0640   14.8205 N.3     1  UNL1       -0.2713
     28 C          63.3368   88.4543   16.1681 C.3     1  UNL1        0.0722
     29 C          63.8106   87.0316   16.1282 C.3     1  UNL1        0.0188
     30 C          64.3531   86.7621   14.7559 C.3     1  UNL1        0.0188
     31 C          64.2146   88.0182   13.9478 C.3     1  UNL1        0.0722
@<TRIPOS>BOND
     1    16    17    1
     2    17    15    1
     3    15     1    1
     4     1     2    2
     5     1     3   am
     6     3     4    1
     7     4     5    1
     8     5     6    1
     9     6     7    1
    10     7     9    1
    11     9    10   ar
    12    10    11   ar
    13    11    12   ar
    14    12    13   ar
    15    13    14   ar
    16     7     8    1
    17     8    26    1
    18    26    27    1
    19    27    28    1
    20    28    29    1
    21    29    30    1
    22    30    31    1
    23    17    18    1
    24    18    19   ar
    25    19    20   ar
    26    20    21   ar
    27    21    22    1
    28    21    23   ar
    29    23    24    1
    30    23    25   ar
    31     8     3    1
    32    31    27    1
    33    25    18   ar
    34    14     9   ar
@<TRIPOS>MOLECULE
*****
 31 34 0 0 0
SMALL
GASTEIGER

@<TRIPOS>ATOM
      1 C          61.9312   88.6976   11.9098 C.2     1  UNL1        0.2459
      2 O          60.8816   88.2959   10.9163 O.2     1  UNL1       -0.2730
      3 N          62.7501   87.6481   12.6013 N.am    1  UNL1       -0.2781
      4 C          63.7998   88.0498   13.5947 C.3     1  UNL1        0.0935
      5 C          64.6186   87.0004   14.2861 C.3     1  UNL1        0.0219
      6 C          64.3878   85.5493   13.9842 C.3     1  UNL1        0.0078
      7 C          63.3382   85.1477   12.9908 C.3     1  UNL1        0.0419
      8 C          62.5194   86.1971   12.2993 C.3     1  UNL1        0.0953
      9 C          63.1074   83.6966   12.6889 C.ar    1  UNL1       -0.0209
     10 C          62.2563   82.8664   13.6033 C.ar    1  UNL1       -0.0042
     11 C          62.0255   81.4153   13.3014 C.ar    1  UNL1       -0.0003
     12 C          62.6458   80.7945   12.0850 C.ar    1  UNL1       -0.0000
     13 C          63.4970   81.6247   11.1705 C.ar    1  UNL1       -0.0003
     14 C          63.7277   83.0758   11.4724 C.ar    1  UNL1       -0.0042
     15 C          62.1620   90.1486   12.2117 C.3     1  UNL1        0.1773
     16 C          63.2322   91.0036   10.0041 C.3     1  UNL1        0.1126
     17 N          63.2486   90.8991   11.5003 N.pl3   1  UNL1       -0.2980
     18 C          64.3516   91.5452   12.2853 C.ar    1  UNL1        0.0491
     19 C          65.4554   92.2684   11.5721 C.ar    1  UNL1        0.0154
     20 C          66.5584   92.9145   12.3569 C.ar    1  UNL1        0.0135
     21 C          66.5576   92.8373   13.8549 C.ar    1  UNL1        0.0683
     22 CL         67.6606   93.4833   14.6398 Cl      1  UNL1       -0.0814
     23 C          65.4538   92.1140   14.5681 C.ar    1  UNL1        0.0694
     24 CL         65.4530   92.0369   16.0661 Cl      1  UNL1       -0.0813
     25 C          64.3508   91.4680   13.7832 C.ar    1  UNL1        0.0268
     26 C          61.4696   85.7955   11.3059 C.3     1  UNL1        0.0924
     27 N          61.8320   85.6223    9.8606 N.3     1  UNL1       -0.2713
     28 C          63.1531   85.1458    9.3338 C.3     1  UNL1        0.0722
     29 C          63.0744   85.1243    7.8360 C.3     1  UNL1        0.0188
     30 C          61.7047   85.5876    7.4371 C.3     1  UNL1        0.0188
     31 C          60.9368   85.8953    8.6884 C.3     1  UNL1        0.0722
@<TRIPOS>BOND
     1    16    17    1
     2    17    15    1
     3    15     1    1
     4     1     2    2
     5     1     3   am
     6     3     4    1
     7     4     5    1
     8     5     6    1
     9     6     7    1
    10     7     9    1
    11     9    10   ar
    12    10    11   ar
    13    11    12   ar
    14    12    13   ar
    15    13    14   ar
    16     7     8    1
    17     8    26    1
    18    26    27    1
    19    27    28    1
    20    28    29    1
    21    29    30    1
    22    30    31    1
    23    17    18    1
    24    18    19   ar
    25    19    20   ar
    26    20    21   ar
    27    21    22    1
    28    21    23   ar
    29    23    24    1
    30    23    25   ar
    31     8     3    1
    32    31    27    1
    33    25    18   ar
    34    14     9   ar
@<TRIPOS>MOLECULE
*****
 31 34 0 0 0
SMALL
GASTEIGER

@<TRIPOS>ATOM
      1 C          61.9591   89.8517   11.7626 C.2     1  UNL1        0.2459
      2 O          61.8823   91.2368   11.1919 O.2     1  UNL1       -0.2730
      3 N          63.0269   89.5092   12.7589 N.am    1  UNL1       -0.2781
      4 C          63.1037   88.1242   13.3296 C.3     1  UNL1        0.0935
      5 C          64.1715   87.7817   14.3258 C.3     1  UNL1        0.0219
      6 C          65.1625   88.8242   14.7514 C.3     1  UNL1        0.0078
      7 C          65.0856   90.2093   14.1807 C.3     1  UNL1        0.0419
      8 C          64.0179   90.5517   13.1844 C.3     1  UNL1        0.0953
      9 C          66.0766   91.2518   14.6062 C.ar    1  UNL1       -0.0209
     10 C          67.4180   91.3282   13.9393 C.ar    1  UNL1       -0.0042
     11 C          68.4089   92.3707   14.3649 C.ar    1  UNL1       -0.0003
     12 C          68.0585   93.3370   15.4573 C.ar    1  UNL1       -0.0000
     13 C          66.7171   93.2606   16.1243 C.ar    1  UNL1       -0.0003
     14 C          65.7261   92.2181   15.6987 C.ar    1  UNL1       -0.0042
     15 C          60.9682   88.8092   11.3370 C.3     1  UNL1        0.1773
     16 C          60.6286   88.6545    8.7659 C.3     1  UNL1        0.1126
     17 N          61.1607   88.0752   10.0431 N.pl3   1  UNL1       -0.2980
     18 C          61.8854   86.7619   10.0264 C.ar    1  UNL1        0.0491
     19 C          62.5381   86.2816    8.7642 C.ar    1  UNL1        0.0154
     20 C          63.2627   84.9683    8.7474 C.ar    1  UNL1        0.0135
     21 C          63.3346   84.1355    9.9929 C.ar    1  UNL1        0.0683
     22 CL         64.0593   82.8222    9.9761 Cl      1  UNL1       -0.0814
     23 C          62.6819   84.6159   11.2551 C.ar    1  UNL1        0.0694
     24 CL         62.7538   83.7829   12.5005 Cl      1  UNL1       -0.0813
     25 C          61.9572   85.9291   11.2718 C.ar    1  UNL1        0.0268
     26 C          63.9410   91.9368   12.6137 C.3     1  UNL1        0.0924
     27 N          65.0948   92.4907   11.8314 N.3     1  UNL1       -0.2713
     28 C          65.8386   93.7576   12.1347 C.3     1  UNL1        0.0722
     29 C          66.9108   93.9248   11.0993 C.3     1  UNL1        0.0188
     30 C          66.8298   92.7614   10.1559 C.3     1  UNL1        0.0188
     31 C          65.7074   91.8751   10.6085 C.3     1  UNL1        0.0722
@<TRIPOS>BOND
     1    16    17    1
     2    17    15    1
     3    15     1    1
     4     1     2    2
     5     1     3   am
     6     3     4    1
     7     4     5    1
     8     5     6    1
     9     6     7    1
    10     7     9    1
    11     9    10   ar
    12    10    11   ar
    13    11    12   ar
    14    12    13   ar
    15    13    14   ar
    16     7     8    1
    17     8    26    1
    18    26    27    1
    19    27    28    1
    20    28    29    1
    21    29    30    1
    22    30    31    1
    23    17    18    1
    24    18    19   ar
    25    19    20   ar
    26    20    21   ar
    27    21    22    1
    28    21    23   ar
    29    23    24    1
    30    23    25   ar
    31     8     3    1
    32    31    27    1
    33    25    18   ar
    34    14     9   ar
@<TRIPOS>MOLECULE
*****
 31 34 0 0 0
SMALL
GASTEIGER

@<TRIPOS>ATOM
      1 C          63.2523   88.8754   12.6861 C.2     1  UNL1        0.2459
      2 O          64.2350   88.4571   13.7392 O.2     1  UNL1       -0.2730
      3 N          62.6269   87.8457   11.7924 N.am    1  UNL1       -0.2781
      4 C          61.6442   88.2640   10.7393 C.3     1  UNL1        0.0935
      5 C          61.0189   87.2342    9.8457 C.3     1  UNL1        0.0219
      6 C          61.3763   85.7862   10.0052 C.3     1  UNL1        0.0078
      7 C          62.3591   85.3679   11.0583 C.3     1  UNL1        0.0419
      8 C          62.9844   86.3977   11.9519 C.3     1  UNL1        0.0953
      9 C          62.7165   83.9199   11.2179 C.ar    1  UNL1       -0.0209
     10 C          63.7114   83.2865   10.2911 C.ar    1  UNL1       -0.0042
     11 C          64.0689   81.8385   10.4506 C.ar    1  UNL1       -0.0003
     12 C          63.4314   81.0239   11.5369 C.ar    1  UNL1       -0.0000
     13 C          62.4365   81.6573   12.4637 C.ar    1  UNL1       -0.0003
     14 C          62.0791   83.1053   12.3041 C.ar    1  UNL1       -0.0042
     15 C          62.8948   90.3235   12.5266 C.3     1  UNL1        0.1773
     16 C          63.8579   91.6680   10.5229 C.3     1  UNL1        0.1126
     17 N          63.9016   91.2880   11.9733 N.pl3   1  UNL1       -0.2980
     18 C          64.9521   91.8724   12.8705 C.ar    1  UNL1        0.0491
     19 C          66.1817   92.4954   12.2788 C.ar    1  UNL1        0.0154
     20 C          67.2322   93.0799   13.1758 C.ar    1  UNL1        0.0135
     21 C          67.0532   93.0413   14.6646 C.ar    1  UNL1        0.0683
     22 CL         68.1037   93.6258   15.5617 Cl      1  UNL1       -0.0814
     23 C          65.8236   92.4184   15.2563 C.ar    1  UNL1        0.0694
     24 CL         65.6447   92.3798   16.7451 Cl      1  UNL1       -0.0813
     25 C          64.7731   91.8339   14.3592 C.ar    1  UNL1        0.0268
     26 C          63.9672   85.9794   13.0052 C.3     1  UNL1        0.0924
     27 N          63.4939   85.6832   14.3974 N.3     1  UNL1       -0.2713
     28 C          62.3537   84.7817   14.7679 C.3     1  UNL1        0.0722
     29 C          62.2328   84.7778   16.2630 C.3     1  UNL1        0.0188
     30 C          63.2982   85.6769   16.8165 C.3     1  UNL1        0.0188
     31 C          64.0776   86.2365   15.6635 C.3     1  UNL1        0.0722
@<TRIPOS>BOND
     1    16    17    1
     2    17    15    1
     3    15     1    1
     4     1     2    2
     5     1     3   am
     6     3     4    1
     7     4     5    1
     8     5     6    1
     9     6     7    1
    10     7     9    1
    11     9    10   ar
    12    10    11   ar
    13    11    12   ar
    14    12    13   ar
    15    13    14   ar
    16     7     8    1
    17     8    26    1
    18    26    27    1
    19    27    28    1
    20    28    29    1
    21    29    30    1
    22    30    31    1
    23    17    18    1
    24    18    19   ar
    25    19    20   ar
    26    20    21   ar
    27    21    22    1
    28    21    23   ar
    29    23    24    1
    30    23    25   ar
    31     8     3    1
    32    31    27    1
    33    25    18   ar
    34    14     9   ar
@<TRIPOS>MOLECULE
*****
 31 34 0 0 0
SMALL
GASTEIGER

@<TRIPOS>ATOM
      1 C          61.9776   88.2126   11.3594 C.2     1  UNL1        0.2459
      2 O          61.6114   89.5743   10.8481 O.2     1  UNL1       -0.2730
      3 N          62.9228   88.0750   12.5161 N.am    1  UNL1       -0.2781
      4 C          63.2890   86.7133   13.0275 C.3     1  UNL1        0.0935
      5 C          64.2342   86.5757   14.1840 C.3     1  UNL1        0.0219
      6 C          64.8131   87.7999   14.8292 C.3     1  UNL1        0.0078
      7 C          64.4469   89.1616   14.3178 C.3     1  UNL1        0.0419
      8 C          63.5017   89.2992   13.1613 C.3     1  UNL1        0.0953
      9 C          65.0258   90.3858   14.9630 C.ar    1  UNL1       -0.0209
     10 C          64.1909   91.2046   15.9024 C.ar    1  UNL1       -0.0042
     11 C          64.7698   92.4287   16.5476 C.ar    1  UNL1       -0.0003
     12 C          66.1837   92.8341   16.2534 C.ar    1  UNL1       -0.0000
     13 C          67.0186   92.0153   15.3140 C.ar    1  UNL1       -0.0003
     14 C          66.4397   90.7912   14.6689 C.ar    1  UNL1       -0.0042
     15 C          61.3987   86.9885   10.7143 C.3     1  UNL1        0.1773
     16 C          62.7317   86.2937    8.5952 C.3     1  UNL1        0.1126
     17 N          62.2965   86.0191   10.0042 N.pl3   1  UNL1       -0.2980
     18 C          62.7591   84.7750   10.7031 C.ar    1  UNL1        0.0491
     19 C          63.7572   83.8708   10.0426 C.ar    1  UNL1        0.0154
     20 C          64.2199   82.6269   10.7415 C.ar    1  UNL1        0.0135
     21 C          63.6844   82.2871   12.1008 C.ar    1  UNL1        0.0683
     22 CL         64.1471   81.0430   12.7997 Cl      1  UNL1       -0.0814
     23 C          62.6863   83.1913   12.7613 C.ar    1  UNL1        0.0694
     24 CL         62.1509   82.8514   14.1207 Cl      1  UNL1       -0.0813
     25 C          62.2237   84.4353   12.0624 C.ar    1  UNL1        0.0268
     26 C          63.1355   90.6609   12.6498 C.3     1  UNL1        0.0924
     27 N          64.1631   91.5011   11.9513 N.3     1  UNL1       -0.2713
     28 C          64.4156   91.5375   10.4731 C.3     1  UNL1        0.0722
     29 C          65.5273   92.5113   10.2165 C.3     1  UNL1        0.0188
     30 C          65.9619   93.0768   11.5361 C.3     1  UNL1        0.0188
     31 C          65.1188   92.4525   12.6082 C.3     1  UNL1        0.0722
@<TRIPOS>BOND
     1    16    17    1
     2    17    15    1
     3    15     1    1
     4     1     2    2
     5     1     3   am
     6     3     4    1
     7     4     5    1
     8     5     6    1
     9     6     7    1
    10     7     9    1
    11     9    10   ar
    12    10    11   ar
    13    11    12   ar
    14    12    13   ar
    15    13    14   ar
    16     7     8    1
    17     8    26    1
    18    26    27    1
    19    27    28    1
    20    28    29    1
    21    29    30    1
    22    30    31    1
    23    17    18    1
    24    18    19   ar
    25    19    20   ar
    26    20    21   ar
    27    21    22    1
    28    21    23   ar
    29    23    24    1
    30    23    25   ar
    31     8     3    1
    32    31    27    1
    33    25    18   ar
    34    14     9   ar
