@<TRIPOS>MOLECULE
*****
 27 29 0 0 0
SMALL
GASTEIGER

@<TRIPOS>ATOM
      1 C          60.9960   89.1513   10.5090 C.3     1  UNL1        0.1144
      2 C          62.1397   89.9341   11.0829 C.ar    1  UNL1        0.0004
      3 C          62.9137   90.8788   10.2121 C.ar    1  UNL1       -0.0024
      4 C          64.0574   91.6616   10.7860 C.ar    1  UNL1        0.0029
      5 C          64.4269   91.4996   12.2307 C.ar    1  UNL1        0.0375
      6 C          63.6529   90.5549   13.1015 C.ar    1  UNL1        0.1450
      7 C          62.5092   89.7721   12.5276 C.ar    1  UNL1        0.0349
      8 O          64.0224   90.3930   14.5462 O.3     1  UNL1       -0.4535
      9 C          63.8418   89.0663   15.2224 C.ar    1  UNL1        0.1453
     10 C          63.1153   88.9848   16.5321 C.ar    1  UNL1        0.0375
     11 C          62.9347   87.6581   17.2084 C.ar    1  UNL1        0.0031
     12 C          63.4806   86.4129   16.5748 C.ar    1  UNL1        0.0002
     13 C          64.2072   86.4943   15.2650 C.ar    1  UNL1        0.0031
     14 C          64.3878   87.8210   14.5888 C.ar    1  UNL1        0.0375
     15 N          61.2481   88.1294    9.4403 N.pl3   1  UNL1       -0.3291
     16 H          60.9931   88.3186    8.5084 H       1  UNL1        0.1471
     17 C          63.1695   84.1990   10.4938 C.ar    1  UNL1       -0.0217
     18 C          63.2487   84.7200    9.0894 C.ar    1  UNL1       -0.0030
     19 C          62.6082   86.0301    8.7383 C.ar    1  UNL1        0.0140
     20 C          61.8885   86.8193    9.7915 C.ar    1  UNL1        0.0448
     21 C          61.8093   86.2983   11.1958 C.ar    1  UNL1        0.0140
     22 C          62.4498   84.9881   11.5470 C.ar    1  UNL1       -0.0030
     23 C          63.8099   82.8888   10.8449 C.3     1  UNL1        0.0322
     24 C          63.1472   81.9695   11.8275 C.3     1  UNL1        0.0464
     25 O          64.3419   83.1044   13.8361 O.co2   1  UNL1       -0.5492
     26 C          63.6177   81.9283   13.2512 C.2     1  UNL1        0.0507
     27 O          63.3640   80.7108   14.0900 O.co2   1  UNL1       -0.5492
@<TRIPOS>UNITY_ATOM_ATTR
25 1
charge -1
@<TRIPOS>BOND
     1    25    26   ar
     2    26    27   ar
     3    26    24    1
     4    24    23    1
     5    23    17    1
     6    17    18   ar
     7    18    19   ar
     8    19    20   ar
     9    20    15    1
    10    15     1    1
    11     1     2    1
    12     2     3   ar
    13     3     4   ar
    14     4     5   ar
    15     5     6   ar
    16     6     8    1
    17     8     9    1
    18     9    10   ar
    19    10    11   ar
    20    11    12   ar
    21    12    13   ar
    22    13    14   ar
    23     6     7   ar
    24    20    21   ar
    25    21    22   ar
    26    22    17   ar
    27     7     2   ar
    28    14     9   ar
    29    15    16    1
@<TRIPOS>MOLECULE
*****
 27 29 0 0 0
SMALL
GASTEIGER

@<TRIPOS>ATOM
      1 C          60.6454   87.5401   10.2280 C.3     1  UNL1        0.1144
      2 C          61.5944   86.3861   10.0946 C.ar    1  UNL1        0.0004
      3 C          62.1363   86.0127    8.7467 C.ar    1  UNL1       -0.0024
      4 C          63.0853   84.8587    8.6133 C.ar    1  UNL1        0.0029
      5 C          63.4924   84.0782    9.8279 C.ar    1  UNL1        0.0375
      6 C          62.9504   84.4516   11.1758 C.ar    1  UNL1        0.1450
      7 C          62.0014   85.6056   11.3091 C.ar    1  UNL1        0.0349
      8 O          63.3575   83.6711   12.3903 O.3     1  UNL1       -0.4535
      9 C          63.3871   84.3365   13.7343 C.ar    1  UNL1        0.1453
     10 C          62.3454   84.0014   14.7602 C.ar    1  UNL1        0.0375
     11 C          62.3750   84.6668   16.1042 C.ar    1  UNL1        0.0031
     12 C          63.4463   85.6673   16.4223 C.ar    1  UNL1        0.0002
     13 C          64.4881   86.0024   15.3964 C.ar    1  UNL1        0.0031
     14 C          64.4585   85.3370   14.0524 C.ar    1  UNL1        0.0375
     15 N          61.0861   88.9217    9.8449 N.pl3   1  UNL1       -0.3291
     16 H          60.7116   89.3533    9.0432 H       1  UNL1        0.1471
     17 C          64.1204   91.0939   12.3598 C.ar    1  UNL1       -0.0217
     18 C          63.3776   89.9208   12.9273 C.ar    1  UNL1       -0.0030
     19 C          62.3661   89.1968   12.0890 C.ar    1  UNL1        0.0140
     20 C          62.0976   89.6458   10.6832 C.ar    1  UNL1        0.0448
     21 C          62.8404   90.8188   10.1157 C.ar    1  UNL1        0.0140
     22 C          63.8519   91.5429   10.9540 C.ar    1  UNL1       -0.0030
     23 C          65.1319   91.8179   13.1981 C.3     1  UNL1        0.0322
     24 C          65.5441   91.2573   14.5269 C.3     1  UNL1        0.0464
     25 O          63.7192   91.8739   16.2703 O.co2   1  UNL1       -0.5492
     26 C          65.1389   91.9528   15.7927 C.2     1  UNL1        0.0507
     27 O          66.1534   92.7271   16.5808 O.co2   1  UNL1       -0.5492
@<TRIPOS>UNITY_ATOM_ATTR
25 1
charge -1
@<TRIPOS>BOND
     1    25    26   ar
     2    26    27   ar
     3    26    24    1
     4    24    23    1
     5    23    17    1
     6    17    18   ar
     7    18    19   ar
     8    19    20   ar
     9    20    15    1
    10    15     1    1
    11     1     2    1
    12     2     3   ar
    13     3     4   ar
    14     4     5   ar
    15     5     6   ar
    16     6     8    1
    17     8     9    1
    18     9    10   ar
    19    10    11   ar
    20    11    12   ar
    21    12    13   ar
    22    13    14   ar
    23     6     7   ar
    24    20    21   ar
    25    21    22   ar
    26    22    17   ar
    27     7     2   ar
    28    14     9   ar
    29    15    16    1
@<TRIPOS>MOLECULE
*****
 27 29 0 0 0
SMALL
GASTEIGER

@<TRIPOS>ATOM
      1 C          60.7325   87.6511   10.2092 C.3     1  UNL1        0.1144
      2 C          61.6487   86.4687   10.0973 C.ar    1  UNL1        0.0004
      3 C          62.2082   86.0772    8.7618 C.ar    1  UNL1       -0.0024
      4 C          63.1244   84.8948    8.6499 C.ar    1  UNL1        0.0029
      5 C          63.4810   84.1039    9.8736 C.ar    1  UNL1        0.0375
      6 C          62.9215   84.4954   11.2091 C.ar    1  UNL1        0.1450
      7 C          62.0053   85.6778   11.3209 C.ar    1  UNL1        0.0349
      8 O          63.2781   83.7046   12.4327 O.3     1  UNL1       -0.4535
      9 C          63.3436   84.3807   13.7701 C.ar    1  UNL1        0.1453
     10 C          64.4361   85.3671   14.0590 C.ar    1  UNL1        0.0375
     11 C          64.5016   86.0433   15.3964 C.ar    1  UNL1        0.0031
     12 C          63.4746   85.7331   16.4447 C.ar    1  UNL1        0.0002
     13 C          62.3821   84.7466   16.1558 C.ar    1  UNL1        0.0031
     14 C          62.3166   84.0705   14.8185 C.ar    1  UNL1        0.0375
     15 N          60.8533   88.5858   11.3761 N.pl3   1  UNL1       -0.3291
     16 H          60.2031   88.5387   12.1139 H       1  UNL1        0.1471
     17 C          64.1876   91.6050   11.5048 C.ar    1  UNL1       -0.0217
     18 C          63.3961   91.4150   10.2449 C.ar    1  UNL1       -0.0030
     19 C          62.2846   90.4086   10.2020 C.ar    1  UNL1        0.0140
     20 C          61.9647   89.5922   11.4190 C.ar    1  UNL1        0.0448
     21 C          62.7563   89.7822   12.6789 C.ar    1  UNL1        0.0140
     22 C          63.8677   90.7886   12.7218 C.ar    1  UNL1       -0.0030
     23 C          65.2990   92.6114   11.5477 C.3     1  UNL1        0.0322
     24 C          66.4390   92.5117   10.5780 C.3     1  UNL1        0.0464
     25 O          68.4521   93.6049    9.3523 O.co2   1  UNL1       -0.5492
     26 C          67.2928   93.7128   10.2979 C.2     1  UNL1        0.0507
     27 O          66.9871   95.0219   10.9635 O.co2   1  UNL1       -0.5492
@<TRIPOS>UNITY_ATOM_ATTR
25 1
charge -1
@<TRIPOS>BOND
     1    25    26   ar
     2    26    27   ar
     3    26    24    1
     4    24    23    1
     5    23    17    1
     6    17    18   ar
     7    18    19   ar
     8    19    20   ar
     9    20    15    1
    10    15     1    1
    11     1     2    1
    12     2     3   ar
    13     3     4   ar
    14     4     5   ar
    15     5     6   ar
    16     6     8    1
    17     8     9    1
    18     9    10   ar
    19    10    11   ar
    20    11    12   ar
    21    12    13   ar
    22    13    14   ar
    23     6     7   ar
    24    20    21   ar
    25    21    22   ar
    26    22    17   ar
    27     7     2   ar
    28    14     9   ar
    29    15    16    1
@<TRIPOS>MOLECULE
*****
 27 29 0 0 0
SMALL
GASTEIGER

@<TRIPOS>ATOM
      1 C          60.4427   87.7275   11.0731 C.3     1  UNL1        0.1144
      2 C          61.3470   86.7190   10.4289 C.ar    1  UNL1        0.0004
      3 C          61.4337   86.6364    8.9336 C.ar    1  UNL1       -0.0024
      4 C          62.3380   85.6279    8.2894 C.ar    1  UNL1        0.0029
      5 C          63.1557   84.7020    9.1404 C.ar    1  UNL1        0.0375
      6 C          63.0690   84.7846   10.6356 C.ar    1  UNL1        0.1450
      7 C          62.1646   85.7931   11.2798 C.ar    1  UNL1        0.0349
      8 O          63.8866   83.8587   11.4865 O.3     1  UNL1       -0.4535
      9 C          63.2078   82.8292   12.3406 C.ar    1  UNL1        0.1453
     10 C          62.6626   83.2110   13.6848 C.ar    1  UNL1        0.0375
     11 C          61.9838   82.1815   14.5388 C.ar    1  UNL1        0.0031
     12 C          61.8503   80.7702   14.0487 C.ar    1  UNL1        0.0002
     13 C          62.3955   80.3883   12.7045 C.ar    1  UNL1        0.0031
     14 C          63.0743   81.4178   11.8504 C.ar    1  UNL1        0.0375
     15 N          60.5928   89.1844   10.7494 N.pl3   1  UNL1       -0.3291
     16 H          59.8808   89.6557   10.2592 H       1  UNL1        0.1471
     17 C          64.2974   91.4014   12.0186 C.ar    1  UNL1       -0.0217
     18 C          63.5627   90.5422   13.0045 C.ar    1  UNL1       -0.0030
     19 C          62.3279   89.8032   12.5815 C.ar    1  UNL1        0.0140
     20 C          61.8276   89.9234   11.1725 C.ar    1  UNL1        0.0448
     21 C          62.5623   90.7826   10.1866 C.ar    1  UNL1        0.0140
     22 C          63.7971   91.5216   10.6097 C.ar    1  UNL1       -0.0030
     23 C          65.5323   92.1403   12.4417 C.3     1  UNL1        0.0322
     24 C          66.0356   92.0158   13.8492 C.3     1  UNL1        0.0464
     25 O          67.0994   93.0943   15.9599 O.co2   1  UNL1       -0.5492
     26 C          66.5260   93.2302   14.5806 C.2     1  UNL1        0.0507
     27 O          66.4429   94.5805   13.9325 O.co2   1  UNL1       -0.5492
@<TRIPOS>UNITY_ATOM_ATTR
25 1
charge -1
@<TRIPOS>BOND
     1    25    26   ar
     2    26    27   ar
     3    26    24    1
     4    24    23    1
     5    23    17    1
     6    17    18   ar
     7    18    19   ar
     8    19    20   ar
     9    20    15    1
    10    15     1    1
    11     1     2    1
    12     2     3   ar
    13     3     4   ar
    14     4     5   ar
    15     5     6   ar
    16     6     8    1
    17     8     9    1
    18     9    10   ar
    19    10    11   ar
    20    11    12   ar
    21    12    13   ar
    22    13    14   ar
    23     6     7   ar
    24    20    21   ar
    25    21    22   ar
    26    22    17   ar
    27     7     2   ar
    28    14     9   ar
    29    15    16    1
@<TRIPOS>MOLECULE
*****
 27 29 0 0 0
SMALL
GASTEIGER

@<TRIPOS>ATOM
      1 C          64.2074   89.7242   14.0622 C.3     1  UNL1        0.1144
      2 C          63.9251   88.5875   14.9993 C.ar    1  UNL1        0.0004
      3 C          63.1556   88.8313   16.2637 C.ar    1  UNL1       -0.0024
      4 C          62.8733   87.6947   17.2008 C.ar    1  UNL1        0.0029
      5 C          63.3604   86.3142   16.8736 C.ar    1  UNL1        0.0375
      6 C          64.1298   86.0704   15.6093 C.ar    1  UNL1        0.1450
      7 C          64.4122   87.2071   14.6722 C.ar    1  UNL1        0.0349
      8 O          64.6169   84.6900   15.2821 O.3     1  UNL1       -0.4535
      9 C          63.8648   83.8426   14.2992 C.ar    1  UNL1        0.1453
     10 C          64.1637   83.9502   12.8332 C.ar    1  UNL1        0.0375
     11 C          63.4115   83.1028   11.8502 C.ar    1  UNL1        0.0031
     12 C          62.3605   82.1478   12.3332 C.ar    1  UNL1        0.0002
     13 C          62.0616   82.0402   13.7992 C.ar    1  UNL1        0.0031
     14 C          62.8137   82.8876   14.7822 C.ar    1  UNL1        0.0375
     15 N          63.0807   90.5715   13.5500 N.pl3   1  UNL1       -0.3291
     16 H          62.8202   91.3887   14.0334 H       1  UNL1        0.1471
     17 C          60.8909   89.3786    9.8041 C.ar    1  UNL1       -0.0217
     18 C          62.3254   89.8106    9.7289 C.ar    1  UNL1       -0.0030
     19 C          63.0553   90.2083   10.9776 C.ar    1  UNL1        0.0140
     20 C          62.3508   90.1739   12.3014 C.ar    1  UNL1        0.0448
     21 C          60.9163   89.7418   12.3765 C.ar    1  UNL1        0.0140
     22 C          60.1864   89.3441   11.1278 C.ar    1  UNL1       -0.0030
     23 C          60.1610   88.9809    8.5554 C.3     1  UNL1        0.0322
     24 C          59.4084   87.6843    8.5073 C.3     1  UNL1        0.0464
     25 O          60.0363   85.5076    7.2355 O.co2   1  UNL1       -0.5492
     26 C          60.1557   86.3852    8.4461 C.2     1  UNL1        0.0507
     27 O          61.0224   85.9635    9.5955 O.co2   1  UNL1       -0.5492
@<TRIPOS>UNITY_ATOM_ATTR
25 1
charge -1
@<TRIPOS>BOND
     1    25    26   ar
     2    26    27   ar
     3    26    24    1
     4    24    23    1
     5    23    17    1
     6    17    18   ar
     7    18    19   ar
     8    19    20   ar
     9    20    15    1
    10    15     1    1
    11     1     2    1
    12     2     3   ar
    13     3     4   ar
    14     4     5   ar
    15     5     6   ar
    16     6     8    1
    17     8     9    1
    18     9    10   ar
    19    10    11   ar
    20    11    12   ar
    21    12    13   ar
    22    13    14   ar
    23     6     7   ar
    24    20    21   ar
    25    21    22   ar
    26    22    17   ar
    27     7     2   ar
    28    14     9   ar
    29    15    16    1
@<TRIPOS>MOLECULE
*****
 27 29 0 0 0
SMALL
GASTEIGER

@<TRIPOS>ATOM
      1 C          61.5553   90.0290   10.2723 C.3     1  UNL1        0.1144
      2 C          61.2258   88.7493    9.5626 C.ar    1  UNL1        0.0004
      3 C          59.9164   88.6051    8.8451 C.ar    1  UNL1       -0.0024
      4 C          59.5870   87.3254    8.1353 C.ar    1  UNL1        0.0029
      5 C          60.5670   86.1897    8.1431 C.ar    1  UNL1        0.0375
      6 C          61.8763   86.3339    8.8606 C.ar    1  UNL1        0.1450
      7 C          62.2057   87.6136    9.5703 C.ar    1  UNL1        0.0349
      8 O          62.8562   85.1983    8.8684 O.3     1  UNL1       -0.4535
      9 C          63.1343   84.4563   10.1420 C.ar    1  UNL1        0.1453
     10 C          64.0773   83.2898   10.1399 C.ar    1  UNL1        0.0375
     11 C          64.3554   82.5478   11.4135 C.ar    1  UNL1        0.0031
     12 C          63.6904   82.9723   12.6892 C.ar    1  UNL1        0.0002
     13 C          62.7473   84.1388   12.6914 C.ar    1  UNL1        0.0031
     14 C          62.4693   84.8808   11.4178 C.ar    1  UNL1        0.0375
     15 N          61.9313   90.0061   11.7242 N.pl3   1  UNL1       -0.3291
     16 H          61.3328   89.5824   12.3810 H       1  UNL1        0.1471
     17 C          65.7950   91.8743   13.0775 C.ar    1  UNL1       -0.0217
     18 C          65.0599   90.9316   13.9836 C.ar    1  UNL1       -0.0030
     19 C          63.7720   90.3089   13.5324 C.ar    1  UNL1        0.0140
     20 C          63.2192   90.6289   12.1753 C.ar    1  UNL1        0.0448
     21 C          63.9543   91.5715   11.2692 C.ar    1  UNL1        0.0140
     22 C          65.2422   92.1943   11.7203 C.ar    1  UNL1       -0.0030
     23 C          67.0829   92.4971   13.5286 C.3     1  UNL1        0.0322
     24 C          67.0758   93.5317   14.6146 C.3     1  UNL1        0.0464
     25 O          68.3453   92.1019   16.3735 O.co2   1  UNL1       -0.5492
     26 C          68.0511   93.4340   15.7500 C.2     1  UNL1        0.0507
     27 O          68.7323   94.6686   16.2619 O.co2   1  UNL1       -0.5492
@<TRIPOS>UNITY_ATOM_ATTR
25 1
charge -1
@<TRIPOS>BOND
     1    25    26   ar
     2    26    27   ar
     3    26    24    1
     4    24    23    1
     5    23    17    1
     6    17    18   ar
     7    18    19   ar
     8    19    20   ar
     9    20    15    1
    10    15     1    1
    11     1     2    1
    12     2     3   ar
    13     3     4   ar
    14     4     5   ar
    15     5     6   ar
    16     6     8    1
    17     8     9    1
    18     9    10   ar
    19    10    11   ar
    20    11    12   ar
    21    12    13   ar
    22    13    14   ar
    23     6     7   ar
    24    20    21   ar
    25    21    22   ar
    26    22    17   ar
    27     7     2   ar
    28    14     9   ar
    29    15    16    1
@<TRIPOS>MOLECULE
*****
 27 29 0 0 0
SMALL
GASTEIGER

@<TRIPOS>ATOM
      1 C          61.0433   88.9313   10.9372 C.3     1  UNL1        0.1144
      2 C          62.1465   89.8966   11.2552 C.ar    1  UNL1        0.0004
      3 C          62.7828   90.6965   10.1574 C.ar    1  UNL1       -0.0024
      4 C          63.8860   91.6618   10.4754 C.ar    1  UNL1        0.0029
      5 C          64.3530   91.8271   11.8914 C.ar    1  UNL1        0.0375
      6 C          63.7167   91.0272   12.9891 C.ar    1  UNL1        0.1450
      7 C          62.6135   90.0619   12.6711 C.ar    1  UNL1        0.0349
      8 O          64.1836   91.1925   14.4050 O.3     1  UNL1       -0.4535
      9 C          65.5698   91.6931   14.6839 C.ar    1  UNL1        0.1453
     10 C          66.6725   91.4348   13.7005 C.ar    1  UNL1        0.0375
     11 C          68.0587   91.9355   13.9795 C.ar    1  UNL1        0.0031
     12 C          68.3422   92.6944   15.2419 C.ar    1  UNL1        0.0002
     13 C          67.2394   92.9527   16.2254 C.ar    1  UNL1        0.0031
     14 C          65.8532   92.4520   15.9464 C.ar    1  UNL1        0.0375
     15 N          61.1932   87.9709    9.7947 N.pl3   1  UNL1       -0.3291
     16 H          60.8235   88.1962    8.9105 H       1  UNL1        0.1471
     17 C          63.3328   84.0600   10.4088 C.ar    1  UNL1       -0.0217
     18 C          63.2910   84.6862    9.0464 C.ar    1  UNL1       -0.0030
     19 C          62.5778   85.9899    8.8417 C.ar    1  UNL1        0.0140
     20 C          61.9064   86.6673    9.9994 C.ar    1  UNL1        0.0448
     21 C          61.9482   86.0411   11.3618 C.ar    1  UNL1        0.0140
     22 C          62.6614   84.7374   11.5664 C.ar    1  UNL1       -0.0030
     23 C          64.0460   82.7564   10.6135 C.3     1  UNL1        0.0322
     24 C          64.5164   82.3658   11.9832 C.3     1  UNL1        0.0464
     25 O          62.7266   80.5119   12.3146 O.co2   1  UNL1       -0.5492
     26 C          63.6189   81.5732   12.8867 C.2     1  UNL1        0.0507
     27 O          63.6137   81.8420   14.3625 O.co2   1  UNL1       -0.5492
@<TRIPOS>UNITY_ATOM_ATTR
25 1
charge -1
@<TRIPOS>BOND
     1    25    26   ar
     2    26    27   ar
     3    26    24    1
     4    24    23    1
     5    23    17    1
     6    17    18   ar
     7    18    19   ar
     8    19    20   ar
     9    20    15    1
    10    15     1    1
    11     1     2    1
    12     2     3   ar
    13     3     4   ar
    14     4     5   ar
    15     5     6   ar
    16     6     8    1
    17     8     9    1
    18     9    10   ar
    19    10    11   ar
    20    11    12   ar
    21    12    13   ar
    22    13    14   ar
    23     6     7   ar
    24    20    21   ar
    25    21    22   ar
    26    22    17   ar
    27     7     2   ar
    28    14     9   ar
    29    15    16    1
@<TRIPOS>MOLECULE
*****
 27 29 0 0 0
SMALL
GASTEIGER

@<TRIPOS>ATOM
      1 C          64.6309   83.4125   14.7512 C.3     1  UNL1        0.1144
      2 C          64.1332   82.8819   13.4394 C.ar    1  UNL1        0.0004
      3 C          63.5018   81.5229   13.3711 C.ar    1  UNL1       -0.0024
      4 C          63.0042   80.9923   12.0593 C.ar    1  UNL1        0.0029
      5 C          63.1380   81.8206   10.8158 C.ar    1  UNL1        0.0375
      6 C          63.7694   83.1795   10.8842 C.ar    1  UNL1        0.1450
      7 C          64.2670   83.7101   12.1960 C.ar    1  UNL1        0.0349
      8 O          63.9032   84.0077    9.6408 O.3     1  UNL1       -0.4535
      9 C          62.7561   84.8560    9.1777 C.ar    1  UNL1        0.1453
     10 C          62.0084   85.7077   10.1604 C.ar    1  UNL1        0.0375
     11 C          60.8613   86.5560    9.6972 C.ar    1  UNL1        0.0031
     12 C          60.4618   86.5526    8.2514 C.ar    1  UNL1        0.0002
     13 C          61.2095   85.7009    7.2687 C.ar    1  UNL1        0.0031
     14 C          62.3566   84.8526    7.7318 C.ar    1  UNL1        0.0375
     15 N          63.6696   84.0277   15.7246 N.pl3   1  UNL1       -0.3291
     16 H          63.0796   83.4529   16.2638 H       1  UNL1        0.1471
     17 C          63.4826   88.5007   16.1802 C.ar    1  UNL1       -0.0217
     18 C          62.8078   87.6155   17.1857 C.ar    1  UNL1       -0.0030
     19 C          62.8701   86.1245   17.0338 C.ar    1  UNL1        0.0140
     20 C          63.6073   85.5187   15.8765 C.ar    1  UNL1        0.0448
     21 C          64.2821   86.4039   14.8710 C.ar    1  UNL1        0.0140
     22 C          64.2197   87.8949   15.0229 C.ar    1  UNL1       -0.0030
     23 C          63.4202   89.9917   16.3321 C.3     1  UNL1        0.0322
     24 C          64.1917   90.8738   15.3959 C.3     1  UNL1        0.0464
     25 O          66.3003   92.3849   15.2532 O.co2   1  UNL1       -0.5492
     26 C          65.0235   91.9978   15.9388 C.2     1  UNL1        0.0507
     27 O          64.5786   92.7347   17.1673 O.co2   1  UNL1       -0.5492
@<TRIPOS>UNITY_ATOM_ATTR
25 1
charge -1
@<TRIPOS>BOND
     1    25    26   ar
     2    26    27   ar
     3    26    24    1
     4    24    23    1
     5    23    17    1
     6    17    18   ar
     7    18    19   ar
     8    19    20   ar
     9    20    15    1
    10    15     1    1
    11     1     2    1
    12     2     3   ar
    13     3     4   ar
    14     4     5   ar
    15     5     6   ar
    16     6     8    1
    17     8     9    1
    18     9    10   ar
    19    10    11   ar
    20    11    12   ar
    21    12    13   ar
    22    13    14   ar
    23     6     7   ar
    24    20    21   ar
    25    21    22   ar
    26    22    17   ar
    27     7     2   ar
    28    14     9   ar
    29    15    16    1
@<TRIPOS>MOLECULE
*****
 27 29 0 0 0
SMALL
GASTEIGER

@<TRIPOS>ATOM
      1 C          64.9904   91.3149   14.9406 C.3     1  UNL1        0.1144
      2 C          65.0863   91.7652   13.5130 C.ar    1  UNL1        0.0004
      3 C          66.1972   92.6793   13.0879 C.ar    1  UNL1       -0.0024
      4 C          66.2931   93.1296   11.6603 C.ar    1  UNL1        0.0029
      5 C          65.2782   92.6659   10.6578 C.ar    1  UNL1        0.0375
      6 C          64.1675   91.7518   11.0829 C.ar    1  UNL1        0.1450
      7 C          64.0715   91.3015   12.5105 C.ar    1  UNL1        0.0349
      8 O          63.1527   91.2881   10.0803 O.3     1  UNL1       -0.4535
      9 C          62.1459   90.2432   10.4606 C.ar    1  UNL1        0.1453
     10 C          62.4742   88.7892   10.2931 C.ar    1  UNL1        0.0375
     11 C          61.4674   87.7444   10.6733 C.ar    1  UNL1        0.0031
     12 C          60.1323   88.1535   11.2212 C.ar    1  UNL1        0.0002
     13 C          59.8039   89.6075   11.3887 C.ar    1  UNL1        0.0031
     14 C          60.8107   90.6524   11.0085 C.ar    1  UNL1        0.0375
     15 N          63.7443   90.6399   15.4319 N.pl3   1  UNL1       -0.3291
     16 H          62.9447   91.1747   15.6414 H       1  UNL1        0.1471
     17 C          63.6607   86.1704   15.9485 C.ar    1  UNL1       -0.0217
     18 C          63.0368   87.0570   16.9851 C.ar    1  UNL1       -0.0030
     19 C          63.0647   88.5468   16.8129 C.ar    1  UNL1        0.0140
     20 C          63.7164   89.1501   15.6041 C.ar    1  UNL1        0.0448
     21 C          64.3403   88.2635   14.5675 C.ar    1  UNL1        0.0140
     22 C          64.3124   86.7736   14.7397 C.ar    1  UNL1       -0.0030
     23 C          63.6328   84.6806   16.1206 C.3     1  UNL1        0.0322
     24 C          62.5545   83.8699   15.4650 C.3     1  UNL1        0.0464
     25 O          63.4181   81.6544   14.4182 O.co2   1  UNL1       -0.5492
     26 C          62.8700   83.0410   14.2552 C.2     1  UNL1        0.0507
     27 O          62.6372   83.5990   12.8824 O.co2   1  UNL1       -0.5492
@<TRIPOS>UNITY_ATOM_ATTR
25 1
charge -1
@<TRIPOS>BOND
     1    25    26   ar
     2    26    27   ar
     3    26    24    1
     4    24    23    1
     5    23    17    1
     6    17    18   ar
     7    18    19   ar
     8    19    20   ar
     9    20    15    1
    10    15     1    1
    11     1     2    1
    12     2     3   ar
    13     3     4   ar
    14     4     5   ar
    15     5     6   ar
    16     6     8    1
    17     8     9    1
    18     9    10   ar
    19    10    11   ar
    20    11    12   ar
    21    12    13   ar
    22    13    14   ar
    23     6     7   ar
    24    20    21   ar
    25    21    22   ar
    26    22    17   ar
    27     7     2   ar
    28    14     9   ar
    29    15    16    1
