@<TRIPOS>MOLECULE
*****
 34 39 0 0 0
SMALL
GASTEIGER

@<TRIPOS>ATOM
      1 C          63.7794   86.7451   15.0022 C.ar    1  UNL1        0.1002
      2 C          64.0403   88.0760   14.3614 C.ar    1  UNL1        0.0415
      3 C          63.7820   89.3402   15.1262 C.ar    1  UNL1        0.1068
      4 C          63.2628   89.2735   16.5319 C.ar    1  UNL1        0.1412
      5 C          63.0019   87.9427   17.1728 C.ar    1  UNL1        0.1213
      6 N          63.2602   86.6785   16.4079 N.ar    1  UNL1       -0.2406
      7 N          63.1037   90.6779   17.0343 N.ar    1  UNL1       -0.1269
      8 N          63.5246   91.6125   15.9392 N.ar    1  UNL1       -0.0595
      9 N          63.9438   90.7857   14.7599 N.ar    1  UNL1       -0.2103
     10 C          64.4381   91.3121   13.4451 C.ar    1  UNL1        0.0858
     11 C          63.6579   91.0500   12.1912 C.ar    1  UNL1        0.0206
     12 C          64.1521   91.5764   10.8764 C.ar    1  UNL1        0.0195
     13 C          65.4268   92.3648   10.8156 C.ar    1  UNL1        0.0904
     14 N          66.1569   93.0058    9.6728 N.am    1  UNL1       -0.1594
     15 C          67.3885   93.6640   10.2204 C.2     1  UNL1        0.3478
     16 O          68.4098   94.4230    9.4263 O.2     1  UNL1       -0.2484
     17 N          67.4195   93.4298   11.7017 N.am    1  UNL1       -0.1593
     18 C          66.2071   92.6269   12.0695 C.ar    1  UNL1        0.0918
     19 C          65.7128   92.1005   13.3843 C.ar    1  UNL1        0.0372
     20 N          63.5128   85.1542   12.8708 N.ar    1  UNL1       -0.2449
     21 N          64.0169   83.7927   12.4937 N.ar    1  UNL1       -0.1673
     22 C          64.8536   83.2779   13.6273 C.ar    1  UNL1        0.1217
     23 C          64.8665   84.3212   14.7049 C.ar    1  UNL1        0.0427
     24 C          64.0378   85.4808   14.2374 C.ar    1  UNL1        0.0974
     25 C          62.6372   86.0345   12.0290 C.3     1  UNL1        0.1547
     26 C          61.9626   85.0489    7.6905 C.ar    1  UNL1        0.0693
     27 C          63.0938   84.4076    8.4382 C.ar    1  UNL1        0.0101
     28 C          63.3187   84.7361    9.8844 C.ar    1  UNL1       -0.0008
     29 C          62.4123   85.7060   10.5829 C.ar    1  UNL1        0.0127
     30 C          61.2811   86.3473    9.8352 C.ar    1  UNL1        0.0562
     31 CL         60.3747   87.3171   10.5337 Cl      1  UNL1       -0.0825
     32 C          61.0562   86.0187    8.3890 C.ar    1  UNL1        0.0214
     33 N          61.5127   84.3918    4.7981 N.1     1  UNL1       -0.1908
     34 C          61.7377   84.7204    6.2442 C.1     1  UNL1        0.1004
@<TRIPOS>BOND
     1    33    34    3
     2    34    26    1
     3    26    27   ar
     4    27    28   ar
     5    28    29   ar
     6    29    25    1
     7    25    20    1
     8    20    21   ar
     9    21    22   ar
    10    22    23   ar
    11    23    24   ar
    12    24     1    1
    13     1     2   ar
    14     2     3   ar
    15     3     4   ar
    16     4     5   ar
    17     5     6   ar
    18     4     7   ar
    19     7     8   ar
    20     8     9   ar
    21     9    10    1
    22    10    11   ar
    23    11    12   ar
    24    12    13   ar
    25    13    14    2
    26    14    15    1
    27    15    16    2
    28    15    17    1
    29    17    18    2
    30    18    19   ar
    31    29    30   ar
    32    30    31    1
    33    30    32   ar
    34    32    26   ar
    35    24    20   ar
    36     6     1   ar
    37    19    10   ar
    38     9     3   ar
    39    18    13   ar
@<TRIPOS>MOLECULE
*****
 34 39 0 0 0
SMALL
GASTEIGER

@<TRIPOS>ATOM
      1 C          63.6288   90.0297   14.2456 C.ar    1  UNL1        0.1002
      2 C          63.6415   88.5375   14.3978 C.ar    1  UNL1        0.0415
      3 C          63.4406   87.9198   15.7498 C.ar    1  UNL1        0.1068
      4 C          63.2269   88.7943   16.9496 C.ar    1  UNL1        0.1412
      5 C          63.2141   90.2865   16.7975 C.ar    1  UNL1        0.1213
      6 N          63.4151   90.9042   15.4455 N.ar    1  UNL1       -0.2406
      7 N          63.0575   87.9060   18.1464 N.ar    1  UNL1       -0.1269
      8 N          63.1665   86.4825   17.6862 N.ar    1  UNL1       -0.0595
      9 N          63.4033   86.4911   16.2050 N.ar    1  UNL1       -0.2103
     10 C          63.5729   85.2830   15.3322 C.ar    1  UNL1        0.0858
     11 C          64.6759   85.2403   14.3167 C.ar    1  UNL1        0.0206
     12 C          64.8456   84.0322   13.4439 C.ar    1  UNL1        0.0195
     13 C          63.9122   82.8667   13.5867 C.ar    1  UNL1        0.0904
     14 N          63.8337   81.5503   12.8721 N.am    1  UNL1       -0.1594
     15 C          62.6821   80.7792   13.4460 C.2     1  UNL1        0.3478
     16 O          62.2411   79.4089   13.0246 O.2     1  UNL1       -0.2484
     17 N          62.0489   81.6192   14.5153 N.am    1  UNL1       -0.1593
     18 C          62.8091   82.9093   14.6023 C.ar    1  UNL1        0.0918
     19 C          62.6395   84.1174   15.4751 C.ar    1  UNL1        0.0372
     20 N          62.9469   90.4551   11.6962 N.ar    1  UNL1       -0.2449
     21 N          63.5203   91.2548   10.5641 N.ar    1  UNL1       -0.1673
     22 C          64.7576   91.9415   11.0618 C.ar    1  UNL1        0.1217
     23 C          64.9488   91.5661   12.5014 C.ar    1  UNL1        0.0427
     24 C          63.8297   90.6475   12.8935 C.ar    1  UNL1        0.0974
     25 C          61.7081   89.6111   11.6407 C.3     1  UNL1        0.1547
     26 C          61.2674   86.4684    8.4503 C.ar    1  UNL1        0.0693
     27 C          62.2024   86.2428    9.6013 C.ar    1  UNL1        0.0101
     28 C          62.3493   87.2904   10.6648 C.ar    1  UNL1       -0.0008
     29 C          61.5611   88.5636   10.5773 C.ar    1  UNL1        0.0127
     30 C          60.6261   88.7892    9.4263 C.ar    1  UNL1        0.0562
     31 CL         59.8379   90.0625    9.3388 Cl      1  UNL1       -0.0825
     32 C          60.4792   87.7417    8.3628 C.ar    1  UNL1        0.0214
     33 N          60.9734   84.3734    6.3232 N.1     1  UNL1       -0.1908
     34 C          61.1205   85.4208    7.3868 C.1     1  UNL1        0.1004
@<TRIPOS>BOND
     1    33    34    3
     2    34    26    1
     3    26    27   ar
     4    27    28   ar
     5    28    29   ar
     6    29    25    1
     7    25    20    1
     8    20    21   ar
     9    21    22   ar
    10    22    23   ar
    11    23    24   ar
    12    24     1    1
    13     1     2   ar
    14     2     3   ar
    15     3     4   ar
    16     4     5   ar
    17     5     6   ar
    18     4     7   ar
    19     7     8   ar
    20     8     9   ar
    21     9    10    1
    22    10    11   ar
    23    11    12   ar
    24    12    13   ar
    25    13    14    2
    26    14    15    1
    27    15    16    2
    28    15    17    1
    29    17    18    2
    30    18    19   ar
    31    29    30   ar
    32    30    31    1
    33    30    32   ar
    34    32    26   ar
    35    24    20   ar
    36     6     1   ar
    37    19    10   ar
    38     9     3   ar
    39    18    13   ar
@<TRIPOS>MOLECULE
*****
 34 39 0 0 0
SMALL
GASTEIGER

@<TRIPOS>ATOM
      1 C          62.7377   90.0390   13.2889 C.ar    1  UNL1        0.1002
      2 C          63.8333   90.8927   12.7227 C.ar    1  UNL1        0.0415
      3 C          64.8527   91.5074   13.6353 C.ar    1  UNL1        0.1068
      4 C          64.7765   91.2683   15.1142 C.ar    1  UNL1        0.1412
      5 C          63.6808   90.4145   15.6804 C.ar    1  UNL1        0.1213
      6 N          62.6615   89.7998   14.7677 N.ar    1  UNL1       -0.2406
      7 N          65.9143   92.0007   15.7614 N.ar    1  UNL1       -0.1269
      8 N          66.6938   92.6925   14.6826 N.ar    1  UNL1       -0.0595
      9 N          66.0377   92.3876   13.3686 N.ar    1  UNL1       -0.2103
     10 C          66.4875   92.8770   12.0240 C.ar    1  UNL1        0.0858
     11 C          67.4799   92.0809   11.2296 C.ar    1  UNL1        0.0206
     12 C          67.9298   92.5703    9.8849 C.ar    1  UNL1        0.0195
     13 C          67.3872   93.8559    9.3346 C.ar    1  UNL1        0.0904
     14 N          67.6429   94.5845    8.0487 N.am    1  UNL1       -0.1594
     15 C          66.8085   95.8310    8.0483 C.2     1  UNL1        0.3478
     16 O          66.7549   96.8558    6.9543 O.2     1  UNL1       -0.2484
     17 N          66.0371   95.8728    9.3340 N.am    1  UNL1       -0.1593
     18 C          66.3947   94.6521   10.1290 C.ar    1  UNL1        0.0918
     19 C          65.9449   94.1627   11.4737 C.ar    1  UNL1        0.0372
     20 N          61.8919   88.1635   11.5822 N.ar    1  UNL1       -0.2449
     21 N          60.6272   87.9224   10.8126 N.ar    1  UNL1       -0.1673
     22 C          59.6719   89.0342   11.1309 C.ar    1  UNL1        0.1217
     23 C          60.3462   89.9624   12.0972 C.ar    1  UNL1        0.0427
     24 C          61.7182   89.4242   12.3762 C.ar    1  UNL1        0.0974
     25 C          63.1155   87.2961   11.5616 C.3     1  UNL1        0.1547
     26 C          62.9288   83.1029   13.1839 C.ar    1  UNL1        0.0693
     27 C          62.3949   83.4017   11.8144 C.ar    1  UNL1        0.0101
     28 C          62.4572   84.7994   11.2736 C.ar    1  UNL1       -0.0008
     29 C          63.0533   85.8984   12.1024 C.ar    1  UNL1        0.0127
     30 C          63.5872   85.5996   13.4720 C.ar    1  UNL1        0.0562
     31 CL         64.1833   86.6986   14.3008 Cl      1  UNL1       -0.0825
     32 C          63.5249   84.2019   14.0127 C.ar    1  UNL1        0.0214
     33 N          62.8044   80.3074   14.2656 N.1     1  UNL1       -0.1908
     34 C          62.8666   81.7051   13.7248 C.1     1  UNL1        0.1004
@<TRIPOS>BOND
     1    33    34    3
     2    34    26    1
     3    26    27   ar
     4    27    28   ar
     5    28    29   ar
     6    29    25    1
     7    25    20    1
     8    20    21   ar
     9    21    22   ar
    10    22    23   ar
    11    23    24   ar
    12    24     1    1
    13     1     2   ar
    14     2     3   ar
    15     3     4   ar
    16     4     5   ar
    17     5     6   ar
    18     4     7   ar
    19     7     8   ar
    20     8     9   ar
    21     9    10    1
    22    10    11   ar
    23    11    12   ar
    24    12    13   ar
    25    13    14    2
    26    14    15    1
    27    15    16    2
    28    15    17    1
    29    17    18    2
    30    18    19   ar
    31    29    30   ar
    32    30    31    1
    33    30    32   ar
    34    32    26   ar
    35    24    20   ar
    36     6     1   ar
    37    19    10   ar
    38     9     3   ar
    39    18    13   ar
@<TRIPOS>MOLECULE
*****
 34 39 0 0 0
SMALL
GASTEIGER

@<TRIPOS>ATOM
      1 C          61.9867   86.2063    9.1849 C.ar    1  UNL1        0.1002
      2 C          62.2847   85.6777   10.5566 C.ar    1  UNL1        0.0415
      3 C          63.1675   84.4763   10.7220 C.ar    1  UNL1        0.1068
      4 C          63.7522   83.8035    9.5156 C.ar    1  UNL1        0.1412
      5 C          63.4542   84.3320    8.1438 C.ar    1  UNL1        0.1213
      6 N          62.5714   85.5334    7.9785 N.ar    1  UNL1       -0.2406
      7 N          64.5812   82.6457    9.9868 N.ar    1  UNL1       -0.1269
      8 N          64.5089   82.6029   11.4845 N.ar    1  UNL1       -0.0595
      9 N          63.6352   83.7343   11.9388 N.ar    1  UNL1       -0.2103
     10 C          63.2897   84.0656   13.3604 C.ar    1  UNL1        0.0858
     11 C          62.5997   83.0492   14.2210 C.ar    1  UNL1        0.0206
     12 C          62.2543   83.3805   15.6426 C.ar    1  UNL1        0.0195
     13 C          62.5989   84.7283   16.2036 C.ar    1  UNL1        0.0904
     14 N          62.3852   85.3361   17.5581 N.am    1  UNL1       -0.1594
     15 C          62.9431   86.7283   17.5348 C.2     1  UNL1        0.3478
     16 O          62.9427   87.6977   18.6793 O.2     1  UNL1       -0.2484
     17 N          63.5017   86.9808   16.1657 N.am    1  UNL1       -0.1593
     18 C          63.2889   85.7447   15.3430 C.ar    1  UNL1        0.0918
     19 C          63.6343   85.4135   13.9214 C.ar    1  UNL1        0.0372
     20 N          61.0459   88.5923    9.9378 N.ar    1  UNL1       -0.2449
     21 N          60.0303   89.5522    9.3926 N.ar    1  UNL1       -0.1673
     22 C          59.4607   88.9608    8.1373 C.ar    1  UNL1        0.1217
     23 C          60.1243   87.6355    7.9066 C.ar    1  UNL1        0.0427
     24 C          61.1039   87.4077    9.0194 C.ar    1  UNL1        0.0974
     25 C          61.8604   88.7834   11.1828 C.3     1  UNL1        0.1547
     26 C          64.7480   92.2222   11.4766 C.ar    1  UNL1        0.0693
     27 C          63.9702   92.0018   10.2131 C.ar    1  UNL1        0.0101
     28 C          63.0076   90.8556   10.1152 C.ar    1  UNL1       -0.0008
     29 C          62.8229   89.9297   11.2808 C.ar    1  UNL1        0.0127
     30 C          63.6007   90.1500   12.5443 C.ar    1  UNL1        0.0562
     31 CL         63.4160   89.2242   13.7099 Cl      1  UNL1       -0.0825
     32 C          64.5632   91.2963   12.6422 C.ar    1  UNL1        0.0214
     33 N          66.6730   94.5148   11.6728 N.1     1  UNL1       -0.1908
     34 C          65.7106   93.3685   11.5746 C.1     1  UNL1        0.1004
@<TRIPOS>BOND
     1    33    34    3
     2    34    26    1
     3    26    27   ar
     4    27    28   ar
     5    28    29   ar
     6    29    25    1
     7    25    20    1
     8    20    21   ar
     9    21    22   ar
    10    22    23   ar
    11    23    24   ar
    12    24     1    1
    13     1     2   ar
    14     2     3   ar
    15     3     4   ar
    16     4     5   ar
    17     5     6   ar
    18     4     7   ar
    19     7     8   ar
    20     8     9   ar
    21     9    10    1
    22    10    11   ar
    23    11    12   ar
    24    12    13   ar
    25    13    14    2
    26    14    15    1
    27    15    16    2
    28    15    17    1
    29    17    18    2
    30    18    19   ar
    31    29    30   ar
    32    30    31    1
    33    30    32   ar
    34    32    26   ar
    35    24    20   ar
    36     6     1   ar
    37    19    10   ar
    38     9     3   ar
    39    18    13   ar
@<TRIPOS>MOLECULE
*****
 34 39 0 0 0
SMALL
GASTEIGER

@<TRIPOS>ATOM
      1 C          63.9835   89.2829   14.8773 C.ar    1  UNL1        0.1002
      2 C          63.3330   89.3162   13.5261 C.ar    1  UNL1        0.0415
      3 C          63.6822   90.4023   12.5523 C.ar    1  UNL1        0.1068
      4 C          64.6818   91.4551   12.9296 C.ar    1  UNL1        0.1412
      5 C          65.3323   91.4218   14.2808 C.ar    1  UNL1        0.1213
      6 N          64.9831   90.3357   15.2546 N.ar    1  UNL1       -0.2406
      7 N          64.8253   92.3951   11.7695 N.ar    1  UNL1       -0.1269
      8 N          63.9144   91.9233   10.6752 N.ar    1  UNL1       -0.0595
      9 N          63.2079   90.6917   11.1589 N.ar    1  UNL1       -0.2103
     10 C          62.2035   89.8901   10.3853 C.ar    1  UNL1        0.0858
     11 C          60.8148   90.4203   10.1847 C.ar    1  UNL1        0.0206
     12 C          59.8103   89.6188    9.4110 C.ar    1  UNL1        0.0195
     13 C          60.1946   88.2869    8.8378 C.ar    1  UNL1        0.0904
     14 N          59.4250   87.2793    8.0363 N.am    1  UNL1       -0.1594
     15 C          60.3380   86.1264    7.7415 C.2     1  UNL1        0.3478
     16 O          59.9801   84.8947    6.9640 O.2     1  UNL1       -0.2484
     17 N          61.6720   86.4214    8.3608 N.am    1  UNL1       -0.1593
     18 C          61.5833   87.7567    9.0384 C.ar    1  UNL1        0.0918
     19 C          62.5878   88.5582    9.8121 C.ar    1  UNL1        0.0372
     20 N          63.9192   86.7340   15.6800 N.ar    1  UNL1       -0.2449
     21 N          63.3999   86.0159   16.8902 N.ar    1  UNL1       -0.1673
     22 C          62.7941   87.0349   17.8094 C.ar    1  UNL1        0.1217
     23 C          62.9390   88.3827   17.1672 C.ar    1  UNL1        0.0427
     24 C          63.6343   88.1968   15.8512 C.ar    1  UNL1        0.0974
     25 C          64.6032   86.1006   14.5049 C.3     1  UNL1        0.1547
     26 C          63.2681   82.0638   13.0315 C.ar    1  UNL1        0.0693
     27 C          64.1472   82.1671   14.2426 C.ar    1  UNL1        0.0101
     28 C          64.5922   83.5127   14.7337 C.ar    1  UNL1       -0.0008
     29 C          64.1581   84.7551   14.0137 C.ar    1  UNL1        0.0127
     30 C          63.2791   84.6517   12.8027 C.ar    1  UNL1        0.0562
     31 CL         62.8451   85.8941   12.0828 Cl      1  UNL1       -0.0825
     32 C          62.8341   83.3061   12.3116 C.ar    1  UNL1        0.0214
     33 N          62.3781   79.3726   12.0490 N.1     1  UNL1       -0.1908
     34 C          62.8231   80.7181   12.5403 C.1     1  UNL1        0.1004
@<TRIPOS>BOND
     1    33    34    3
     2    34    26    1
     3    26    27   ar
     4    27    28   ar
     5    28    29   ar
     6    29    25    1
     7    25    20    1
     8    20    21   ar
     9    21    22   ar
    10    22    23   ar
    11    23    24   ar
    12    24     1    1
    13     1     2   ar
    14     2     3   ar
    15     3     4   ar
    16     4     5   ar
    17     5     6   ar
    18     4     7   ar
    19     7     8   ar
    20     8     9   ar
    21     9    10    1
    22    10    11   ar
    23    11    12   ar
    24    12    13   ar
    25    13    14    2
    26    14    15    1
    27    15    16    2
    28    15    17    1
    29    17    18    2
    30    18    19   ar
    31    29    30   ar
    32    30    31    1
    33    30    32   ar
    34    32    26   ar
    35    24    20   ar
    36     6     1   ar
    37    19    10   ar
    38     9     3   ar
    39    18    13   ar
@<TRIPOS>MOLECULE
*****
 34 39 0 0 0
SMALL
GASTEIGER

@<TRIPOS>ATOM
      1 C          62.6849   90.4390   11.1764 C.ar    1  UNL1        0.1002
      2 C          62.6448   88.9617   10.9194 C.ar    1  UNL1        0.0415
      3 C          61.4690   88.3551   10.2127 C.ar    1  UNL1        0.1068
      4 C          60.3334   89.2258    9.7629 C.ar    1  UNL1        0.1412
      5 C          60.3735   90.7030   10.0198 C.ar    1  UNL1        0.1213
      6 N          61.5493   91.3096   10.7266 N.ar    1  UNL1       -0.2406
      7 N          59.3148   88.3505    9.0947 N.ar    1  UNL1       -0.1269
      8 N          59.8209   86.9389    9.1315 N.ar    1  UNL1       -0.0595
      9 N          61.1523   86.9418    9.8225 N.ar    1  UNL1       -0.2103
     10 C          62.0154   85.7420   10.0784 C.ar    1  UNL1        0.0858
     11 C          62.9793   85.2739    9.0288 C.ar    1  UNL1        0.0206
     12 C          63.8425   84.0741    9.2847 C.ar    1  UNL1        0.0195
     13 C          63.7417   83.3424   10.5902 C.ar    1  UNL1        0.0904
     14 N          64.4582   82.1372   11.1232 N.am    1  UNL1       -0.1594
     15 C          63.9371   81.8603   12.5022 C.2     1  UNL1        0.3478
     16 O          64.3772   80.7453   13.4037 O.2     1  UNL1       -0.2484
     17 N          62.8986   82.8945   12.8215 N.am    1  UNL1       -0.1593
     18 C          62.7778   83.8104   11.6398 C.ar    1  UNL1        0.0918
     19 C          61.9147   85.0102   11.3840 C.ar    1  UNL1        0.0372
     20 N          64.1464   90.9594   13.3532 N.ar    1  UNL1       -0.2449
     21 N          65.4194   91.7056   13.6227 N.ar    1  UNL1       -0.1673
     22 C          65.9206   92.2530   12.3191 C.ar    1  UNL1        0.1217
     23 C          64.9572   91.8451   11.2441 C.ar    1  UNL1        0.0427
     24 C          63.8607   91.0457   11.8832 C.ar    1  UNL1        0.0974
     25 C          63.3064   90.2514   14.3746 C.3     1  UNL1        0.1547
     26 C          64.0067   85.8896   15.2311 C.ar    1  UNL1        0.0693
     27 C          64.1358   86.4089   13.8298 C.ar    1  UNL1        0.0101
     28 C          63.9024   87.8628   13.5443 C.ar    1  UNL1       -0.0008
     29 C          63.5398   88.7975   14.6601 C.ar    1  UNL1        0.0127
     30 C          63.4107   88.2782   16.0614 C.ar    1  UNL1        0.0562
     31 CL         63.0482   89.2128   17.1772 Cl      1  UNL1       -0.0825
     32 C          63.6441   86.8242   16.3469 C.ar    1  UNL1        0.0214
     33 N          64.4736   82.9816   15.8022 N.1     1  UNL1       -0.1908
     34 C          64.2401   84.4356   15.5167 C.1     1  UNL1        0.1004
@<TRIPOS>BOND
     1    33    34    3
     2    34    26    1
     3    26    27   ar
     4    27    28   ar
     5    28    29   ar
     6    29    25    1
     7    25    20    1
     8    20    21   ar
     9    21    22   ar
    10    22    23   ar
    11    23    24   ar
    12    24     1    1
    13     1     2   ar
    14     2     3   ar
    15     3     4   ar
    16     4     5   ar
    17     5     6   ar
    18     4     7   ar
    19     7     8   ar
    20     8     9   ar
    21     9    10    1
    22    10    11   ar
    23    11    12   ar
    24    12    13   ar
    25    13    14    2
    26    14    15    1
    27    15    16    2
    28    15    17    1
    29    17    18    2
    30    18    19   ar
    31    29    30   ar
    32    30    31    1
    33    30    32   ar
    34    32    26   ar
    35    24    20   ar
    36     6     1   ar
    37    19    10   ar
    38     9     3   ar
    39    18    13   ar
@<TRIPOS>MOLECULE
*****
 34 39 0 0 0
SMALL
GASTEIGER

@<TRIPOS>ATOM
      1 C          61.9455   85.9865    9.1623 C.ar    1  UNL1        0.1002
      2 C          62.2643   85.5110   10.5487 C.ar    1  UNL1        0.0415
      3 C          63.2044   84.3594   10.7489 C.ar    1  UNL1        0.1068
      4 C          63.8256   83.6834    9.5627 C.ar    1  UNL1        0.1412
      5 C          63.5068   84.1589    8.1763 C.ar    1  UNL1        0.1213
      6 N          62.5668   85.3105    7.9761 N.ar    1  UNL1       -0.2406
      7 N          64.7089   82.5810   10.0674 N.ar    1  UNL1       -0.1269
      8 N          64.6335   82.5757   11.5655 N.ar    1  UNL1       -0.0595
      9 N          63.7037   83.6748   11.9867 N.ar    1  UNL1       -0.2103
     10 C          63.3374   84.0274   13.3979 C.ar    1  UNL1        0.0858
     11 C          62.6265   83.0273   14.2606 C.ar    1  UNL1        0.0206
     12 C          62.2603   83.3799   15.6718 C.ar    1  UNL1        0.0195
     13 C          62.6049   84.7328   16.2203 C.ar    1  UNL1        0.0904
     14 N          62.3734   85.3602   17.5630 N.am    1  UNL1       -0.1594
     15 C          62.9412   86.7482   17.5302 C.2     1  UNL1        0.3478
     16 O          62.9287   87.7329   18.6616 O.2     1  UNL1       -0.2484
     17 N          63.5237   86.9786   16.1672 N.am    1  UNL1       -0.1593
     18 C          63.3158   85.7330   15.3577 C.ar    1  UNL1        0.0918
     19 C          63.6821   85.3804   13.9465 C.ar    1  UNL1        0.0372
     20 N          61.3446   88.5908    9.1196 N.ar    1  UNL1       -0.2449
     21 N          60.1100   89.3898    8.8240 N.ar    1  UNL1       -0.1673
     22 C          59.0078   88.4309    8.4838 C.ar    1  UNL1        0.1217
     23 C          59.5612   87.0393    8.5691 C.ar    1  UNL1        0.0427
     24 C          61.0054   87.1382    8.9621 C.ar    1  UNL1        0.0974
     25 C          62.6833   89.1469    9.5050 C.3     1  UNL1        0.1547
     26 C          63.4182   90.5211   13.7265 C.ar    1  UNL1        0.0693
     27 C          62.9562   89.1183   13.4641 C.ar    1  UNL1        0.0101
     28 C          62.7113   88.6603   12.0569 C.ar    1  UNL1       -0.0008
     29 C          62.9283   89.6050   10.9122 C.ar    1  UNL1        0.0127
     30 C          63.3902   91.0078   11.1746 C.ar    1  UNL1        0.0562
     31 CL         63.6072   91.9525   10.0299 Cl      1  UNL1       -0.0825
     32 C          63.6352   91.4658   12.5818 C.ar    1  UNL1        0.0214
     33 N          63.9082   91.4375   16.5409 N.1     1  UNL1       -0.1908
     34 C          63.6632   90.9793   15.1337 C.1     1  UNL1        0.1004
@<TRIPOS>BOND
     1    33    34    3
     2    34    26    1
     3    26    27   ar
     4    27    28   ar
     5    28    29   ar
     6    29    25    1
     7    25    20    1
     8    20    21   ar
     9    21    22   ar
    10    22    23   ar
    11    23    24   ar
    12    24     1    1
    13     1     2   ar
    14     2     3   ar
    15     3     4   ar
    16     4     5   ar
    17     5     6   ar
    18     4     7   ar
    19     7     8   ar
    20     8     9   ar
    21     9    10    1
    22    10    11   ar
    23    11    12   ar
    24    12    13   ar
    25    13    14    2
    26    14    15    1
    27    15    16    2
    28    15    17    1
    29    17    18    2
    30    18    19   ar
    31    29    30   ar
    32    30    31    1
    33    30    32   ar
    34    32    26   ar
    35    24    20   ar
    36     6     1   ar
    37    19    10   ar
    38     9     3   ar
    39    18    13   ar
@<TRIPOS>MOLECULE
*****
 34 39 0 0 0
SMALL
GASTEIGER

@<TRIPOS>ATOM
      1 C          62.6264   89.7536   12.8145 C.ar    1  UNL1        0.1002
      2 C          62.7034   88.3544   12.2796 C.ar    1  UNL1        0.0415
      3 C          62.1070   88.0287   10.9424 C.ar    1  UNL1        0.1068
      4 C          61.4335   89.1024   10.1401 C.ar    1  UNL1        0.1412
      5 C          61.3564   90.5016   10.6749 C.ar    1  UNL1        0.1213
      6 N          61.9529   90.8272   12.0121 N.ar    1  UNL1       -0.2406
      7 N          60.9401   88.4870    8.8642 N.ar    1  UNL1       -0.1269
      8 N          61.3087   87.0330    8.8779 N.ar    1  UNL1       -0.0595
      9 N          62.0298   86.7498   10.1623 N.ar    1  UNL1       -0.2103
     10 C          62.5777   85.4210   10.5914 C.ar    1  UNL1        0.0858
     11 C          63.4241   84.6187    9.6482 C.ar    1  UNL1        0.0206
     12 C          63.9720   83.2899   10.0772 C.ar    1  UNL1        0.0195
     13 C          63.6734   82.7634   11.4497 C.ar    1  UNL1        0.0904
     14 N          64.0719   81.4968   12.1474 N.am    1  UNL1       -0.1594
     15 C          63.4718   81.5162   13.5220 C.2     1  UNL1        0.3478
     16 O          63.6157   80.4451   14.5621 O.2     1  UNL1       -0.2484
     17 N          62.7024   82.7949   13.6738 N.am    1  UNL1       -0.1593
     18 C          62.8270   83.5657   12.3931 C.ar    1  UNL1        0.0918
     19 C          62.2792   84.8945   11.9640 C.ar    1  UNL1        0.0372
     20 N          64.6301   90.5342   14.4022 N.ar    1  UNL1       -0.2449
     21 N          64.7938   90.7433   15.8785 N.ar    1  UNL1       -0.1673
     22 C          63.4877   90.4176   16.5405 C.ar    1  UNL1        0.1217
     23 C          62.5169   90.0072   15.4732 C.ar    1  UNL1        0.0427
     24 C          63.2229   90.0793   14.1518 C.ar    1  UNL1        0.0974
     25 C          65.6879   90.7434   13.3595 C.3     1  UNL1        0.1547
     26 C          65.5842   94.4099   10.7527 C.ar    1  UNL1        0.0693
     27 C          64.9663   93.1303   10.2722 C.ar    1  UNL1        0.0101
     28 C          65.0009   91.9081   11.1412 C.ar    1  UNL1       -0.0008
     29 C          65.6534   91.9656   12.4906 C.ar    1  UNL1        0.0127
     30 C          66.2713   93.2451   12.9711 C.ar    1  UNL1        0.0562
     31 CL         66.9237   93.3026   14.3206 Cl      1  UNL1       -0.0825
     32 C          66.2367   94.4673   12.1022 C.ar    1  UNL1        0.0214
     33 N          65.5152   96.8544    9.0150 N.1     1  UNL1       -0.1908
     34 C          65.5496   95.6322    9.8838 C.1     1  UNL1        0.1004
@<TRIPOS>BOND
     1    33    34    3
     2    34    26    1
     3    26    27   ar
     4    27    28   ar
     5    28    29   ar
     6    29    25    1
     7    25    20    1
     8    20    21   ar
     9    21    22   ar
    10    22    23   ar
    11    23    24   ar
    12    24     1    1
    13     1     2   ar
    14     2     3   ar
    15     3     4   ar
    16     4     5   ar
    17     5     6   ar
    18     4     7   ar
    19     7     8   ar
    20     8     9   ar
    21     9    10    1
    22    10    11   ar
    23    11    12   ar
    24    12    13   ar
    25    13    14    2
    26    14    15    1
    27    15    16    2
    28    15    17    1
    29    17    18    2
    30    18    19   ar
    31    29    30   ar
    32    30    31    1
    33    30    32   ar
    34    32    26   ar
    35    24    20   ar
    36     6     1   ar
    37    19    10   ar
    38     9     3   ar
    39    18    13   ar
@<TRIPOS>MOLECULE
*****
 34 39 0 0 0
SMALL
GASTEIGER

@<TRIPOS>ATOM
      1 C          62.2268   85.2851   10.4950 C.ar    1  UNL1        0.1002
      2 C          62.6238   85.8004   11.8466 C.ar    1  UNL1        0.0415
      3 C          63.5176   84.9803   12.7290 C.ar    1  UNL1        0.1068
      4 C          64.0143   83.6450   12.2598 C.ar    1  UNL1        0.1412
      5 C          63.6173   83.1297   10.9082 C.ar    1  UNL1        0.1213
      6 N          62.7235   83.9498   10.0258 N.ar    1  UNL1       -0.2406
      7 N          64.8766   83.0650   13.3415 N.ar    1  UNL1       -0.1269
      8 N          64.9128   84.0419   14.4792 N.ar    1  UNL1       -0.0595
      9 N          64.0729   85.2256   14.1006 N.ar    1  UNL1       -0.2103
     10 C          63.8308   86.4412   14.9454 C.ar    1  UNL1        0.0858
     11 C          63.0396   86.3271   16.2146 C.ar    1  UNL1        0.0206
     12 C          62.7975   87.5427   17.0594 C.ar    1  UNL1        0.0195
     13 C          63.3466   88.8725   16.6349 C.ar    1  UNL1        0.0904
     14 N          63.2706   90.2349   17.2579 N.am    1  UNL1       -0.1594
     15 C          64.0148   91.1911   16.3737 C.2     1  UNL1        0.3478
     16 O          64.1921   92.6606   16.6163 O.2     1  UNL1       -0.2484
     17 N          64.5508   90.4196   15.2043 N.am    1  UNL1       -0.1593
     18 C          64.1377   88.9867   15.3657 C.ar    1  UNL1        0.0918
     19 C          64.3799   87.7711   14.5209 C.ar    1  UNL1        0.0372
     20 N          60.7848   87.4644    9.9322 N.ar    1  UNL1       -0.2449
     21 N          59.9434   87.9093    8.7728 N.ar    1  UNL1       -0.1673
     22 C          59.9717   86.8250    7.7366 C.ar    1  UNL1        0.1217
     23 C          60.8304   85.7100    8.2556 C.ar    1  UNL1        0.0427
     24 C          61.3330   86.1052    9.6125 C.ar    1  UNL1        0.0974
     25 C          61.0341   88.2421   11.1903 C.3     1  UNL1        0.1547
     26 C          63.9675   91.6545   11.1820 C.ar    1  UNL1        0.0693
     27 C          63.6938   90.8977    9.9161 C.ar    1  UNL1        0.0101
     28 C          62.7159   89.7603    9.9189 C.ar    1  UNL1       -0.0008
     29 C          62.0119   89.3796   11.1876 C.ar    1  UNL1        0.0127
     30 C          62.2857   90.1363   12.4534 C.ar    1  UNL1        0.0562
     31 CL         61.5817   89.7557   13.7220 Cl      1  UNL1       -0.0825
     32 C          63.2635   91.2738   12.4506 C.ar    1  UNL1        0.0214
     33 N          65.9231   93.9296   11.1765 N.1     1  UNL1       -0.1908
     34 C          64.9454   92.7920   11.1793 C.1     1  UNL1        0.1004
@<TRIPOS>BOND
     1    33    34    3
     2    34    26    1
     3    26    27   ar
     4    27    28   ar
     5    28    29   ar
     6    29    25    1
     7    25    20    1
     8    20    21   ar
     9    21    22   ar
    10    22    23   ar
    11    23    24   ar
    12    24     1    1
    13     1     2   ar
    14     2     3   ar
    15     3     4   ar
    16     4     5   ar
    17     5     6   ar
    18     4     7   ar
    19     7     8   ar
    20     8     9   ar
    21     9    10    1
    22    10    11   ar
    23    11    12   ar
    24    12    13   ar
    25    13    14    2
    26    14    15    1
    27    15    16    2
    28    15    17    1
    29    17    18    2
    30    18    19   ar
    31    29    30   ar
    32    30    31    1
    33    30    32   ar
    34    32    26   ar
    35    24    20   ar
    36     6     1   ar
    37    19    10   ar
    38     9     3   ar
    39    18    13   ar
