@<TRIPOS>MOLECULE
*****
 40 45 0 0 0
SMALL
GASTEIGER

@<TRIPOS>ATOM
      1 C          59.2348   95.6065   -1.5667 C.3     1  UNL1        0.1550
      2 C          59.6305   96.8527   -0.8316 C.3     1  UNL1        0.0453
      3 C          58.5478   95.9707   -0.2840 C.3     1  UNL1        0.0453
      4 C          60.1723   95.6847   -2.7352 C.3     1  UNL1        0.1455
      5 C          59.7813   96.4569   -3.9602 C.3     1  UNL1        0.1634
      6 O          60.7187   96.5351   -5.1285 O.3     1  UNL1       -0.3507
      7 C          62.0473   95.8409   -5.0718 C.3     1  UNL1        0.1598
      8 C          62.4383   95.0686   -3.8469 C.3     1  UNL1        0.1093
      9 N          61.5008   94.9905   -2.6784 N.3     1  UNL1       -0.1499
     10 S          61.8918   94.2182   -1.4535 S.O2    1  UNL1        0.0635
     11 O          62.4318   95.4734   -0.8346 O.2     1  UNL1       -0.1528
     12 O          61.3082   93.0666   -2.2171 O.2     1  UNL1       -0.1528
     13 C          62.2829   93.4459   -0.2284 C.ar    1  UNL1        0.1223
     14 C          61.3628   92.3972    0.3225 C.ar    1  UNL1        0.0208
     15 C          61.7539   91.6249    1.5475 C.ar    1  UNL1        0.0128
     16 C          63.0651   91.9013    2.2216 C.ar    1  UNL1        0.0578
     17 CL         63.4561   91.1291    3.4466 Cl      1  UNL1       -0.0822
     18 C          63.9852   92.9501    1.6707 C.ar    1  UNL1        0.0128
     19 C          63.5940   93.7224    0.4456 C.ar    1  UNL1        0.0208
     20 C          63.7668   94.3745   -3.7901 C.3     1  UNL1        0.0203
     21 C          64.2367   93.5580   -4.9574 C.3     1  UNL1        0.0015
     22 C          65.0124   93.4465   -6.2365 C.3     1  UNL1        0.0000
     23 C          64.2751   92.2554   -5.7002 C.3     1  UNL1        0.0000
     24 O          58.5135   94.3333   -1.8962 O.3     1  UNL1       -0.4403
     25 N          58.3235   93.9734   -3.2054 N.am    1  UNL1       -0.2888
     26 C          56.9921   94.0224   -3.8944 C.2     1  UNL1        0.3040
     27 O          55.6841   94.4552   -3.3014 O.2     1  UNL1       -0.2526
     28 N          56.8758   93.6094   -5.3317 N.am    1  UNL1       -0.2641
     29 C          55.6180   93.6053   -6.1489 C.3     1  UNL1        0.0968
     30 C          55.9617   93.1214   -7.5265 C.3     1  UNL1        0.0234
     31 C          57.4320   92.8265   -7.5607 C.3     1  UNL1        0.0234
     32 C          57.9969   93.1281   -6.2043 C.3     1  UNL1        0.0968
     33 C          58.2809   93.5074   -4.7709 C.3     1  UNL1        0.1165
     34 N          57.0657   93.9693   -4.0225 N.am    1  UNL1       -0.2426
     35 C          57.1820   94.3822   -2.5852 C.2     1  UNL1        0.4048
     36 O          55.8007   94.7796   -2.1562 O.2     1  UNL1       -0.2262
     37 C          55.7343   94.0182   -4.7116 C.3     1  UNL1        0.1165
     38 H          59.1211   93.6702   -3.6965 H       1  UNL1        0.1510
     39 C          58.2207   93.3791   -0.6782 C.3     1  UNL1        0.0230
     40 C          58.4398   94.3863   -1.7680 C.3     1  UNL1        0.0910
@<TRIPOS>BOND
     1    39    40    1
     2    40    25    1
     3    25    26   am
     4    26    27    2
     5    26    28   am
     6    28    29    1
     7    29    30    1
     8    30    31    1
     9    31    32    1
    10    32    33    1
    11    33    34    1
    12    34    35   am
    13    35    36    2
    14    35    24    1
    15    24     1    1
    16     4     1    1
    17     4     5    1
    18     5     6    1
    19     6     7    1
    20     7     8    1
    21     8    20    1
    22    20    21    1
    23    21    22    1
    24    22    23    1
    25     8     9    1
    26     9    10    1
    27    10    11    2
    28    10    12    2
    29    10    13    1
    30    13    14   ar
    31    14    15   ar
    32    15    16   ar
    33    16    17    1
    34    16    18   ar
    35    18    19   ar
    36     1     2    1
    37     2     3    1
    38    34    37    1
    39    32    28    1
    40     3     1    1
    41    37    29    1
    42     9     4    1
    43    19    13   ar
    44    23    21    1
    45    25    38    1
@<TRIPOS>MOLECULE
*****
 40 45 0 0 0
SMALL
GASTEIGER

@<TRIPOS>ATOM
      1 C          60.1441   89.1400   11.4126 C.3     1  UNL1        0.1550
      2 C          59.1297   88.1900   11.9767 C.3     1  UNL1        0.0453
      3 C          59.6732   89.2991   12.8279 C.3     1  UNL1        0.0453
      4 C          60.2790   88.5839   10.0260 C.3     1  UNL1        0.1455
      5 C          59.5214   89.2067    8.8912 C.3     1  UNL1        0.1634
      6 O          59.6562   88.6506    7.5046 O.3     1  UNL1       -0.3507
      7 C          60.5489   87.4716    7.2529 C.3     1  UNL1        0.1598
      8 C          61.3065   86.8488    8.3878 C.3     1  UNL1        0.1093
      9 N          61.1716   87.4049    9.7744 N.3     1  UNL1       -0.1499
     10 S          61.9293   86.7821   10.9093 S.O2    1  UNL1        0.0635
     11 O          60.8709   85.7269   11.0368 O.2     1  UNL1       -0.1528
     12 O          62.8875   87.9054   10.6444 O.2     1  UNL1       -0.1528
     13 C          62.6870   86.1592   12.0442 C.ar    1  UNL1        0.1223
     14 C          62.6888   84.6692   12.2166 C.ar    1  UNL1        0.0208
     15 C          63.4465   84.0465   13.3516 C.ar    1  UNL1        0.0128
     16 C          64.2025   84.9137   14.3140 C.ar    1  UNL1        0.0578
     17 CL         64.9602   84.2909   15.4489 Cl      1  UNL1       -0.0822
     18 C          64.2008   86.4038   14.1416 C.ar    1  UNL1        0.0128
     19 C          63.4430   87.0266   13.0066 C.ar    1  UNL1        0.0208
     20 C          62.1991   85.6698    8.1362 C.3     1  UNL1        0.0203
     21 C          62.0882   84.9062    6.8499 C.3     1  UNL1        0.0015
     22 C          62.6926   84.4445    5.5570 C.3     1  UNL1        0.0000
     23 C          61.2916   84.0453    5.9147 C.3     1  UNL1        0.0000
     24 O          61.1117   90.2832   11.3301 O.3     1  UNL1       -0.4403
     25 N          62.3275   90.8727   11.0976 N.am    1  UNL1       -0.2888
     26 C          63.3836   91.0389   12.1497 C.2     1  UNL1        0.3040
     27 O          63.3041   90.6088   13.5846 O.2     1  UNL1       -0.2526
     28 N          64.6872   91.6968   11.8066 N.am    1  UNL1       -0.2641
     29 C          65.8311   91.9315   12.7480 C.3     1  UNL1        0.0968
     30 C          66.9267   92.6154   11.9850 C.3     1  UNL1        0.0234
     31 C          66.4598   92.8033   10.5719 C.3     1  UNL1        0.0234
     32 C          65.0757   92.2357   10.4617 C.3     1  UNL1        0.0968
     33 C          63.7189   91.5991   10.6437 C.3     1  UNL1        0.1165
     34 N          63.4715   91.1074   12.0391 N.am    1  UNL1       -0.2426
     35 C          62.1679   90.4494   12.3823 C.2     1  UNL1        0.4048
     36 O          62.2574   90.0874   13.8351 O.2     1  UNL1       -0.2262
     37 C          64.5276   91.2736   13.0912 C.3     1  UNL1        0.1165
     38 H          62.4899   91.1954   10.1818 H       1  UNL1        0.1510
     39 C          59.7472   90.9992   11.3732 C.3     1  UNL1        0.0230
     40 C          61.0239   90.2147   11.4408 C.3     1  UNL1        0.0910
@<TRIPOS>BOND
     1    39    40    1
     2    40    25    1
     3    25    26   am
     4    26    27    2
     5    26    28   am
     6    28    29    1
     7    29    30    1
     8    30    31    1
     9    31    32    1
    10    32    33    1
    11    33    34    1
    12    34    35   am
    13    35    36    2
    14    35    24    1
    15    24     1    1
    16     4     1    1
    17     4     5    1
    18     5     6    1
    19     6     7    1
    20     7     8    1
    21     8    20    1
    22    20    21    1
    23    21    22    1
    24    22    23    1
    25     8     9    1
    26     9    10    1
    27    10    11    2
    28    10    12    2
    29    10    13    1
    30    13    14   ar
    31    14    15   ar
    32    15    16   ar
    33    16    17    1
    34    16    18   ar
    35    18    19   ar
    36     1     2    1
    37     2     3    1
    38    34    37    1
    39    32    28    1
    40     3     1    1
    41    37    29    1
    42     9     4    1
    43    19    13   ar
    44    23    21    1
    45    25    38    1
@<TRIPOS>MOLECULE
*****
 40 45 0 0 0
SMALL
GASTEIGER

@<TRIPOS>ATOM
      1 C          58.2591   94.7669   -1.8904 C.3     1  UNL1        0.1550
      2 C          58.0270   96.0469   -1.1436 C.3     1  UNL1        0.0453
      3 C          57.8933   94.7311   -0.4361 C.3     1  UNL1        0.0453
      4 C          58.5835   95.3133   -3.2493 C.3     1  UNL1        0.1455
      5 C          57.4774   95.6782   -4.1944 C.3     1  UNL1        0.1634
      6 O          57.8017   96.2245   -5.5532 O.3     1  UNL1       -0.3507
      7 C          59.2322   96.4059   -5.9668 C.3     1  UNL1        0.1598
      8 C          60.3382   96.0410   -5.0216 C.3     1  UNL1        0.1093
      9 N          60.0139   95.4946   -3.6628 N.3     1  UNL1       -0.1499
     10 S          61.1199   95.1297   -2.7176 S.O2    1  UNL1        0.0635
     11 O          61.0502   96.4983   -2.1076 O.2     1  UNL1       -0.1528
     12 O          61.0543   93.8158   -3.4382 O.2     1  UNL1       -0.1528
     13 C          62.2260   94.7647   -1.7724 C.ar    1  UNL1        0.1223
     14 C          63.6023   95.3252   -1.9763 C.ar    1  UNL1        0.0208
     15 C          64.7084   94.9602   -1.0310 C.ar    1  UNL1        0.0128
     16 C          64.4381   94.0347    0.1181 C.ar    1  UNL1        0.0578
     17 CL         65.5441   93.6697    1.0633 Cl      1  UNL1       -0.0822
     18 C          63.0617   93.4742    0.3220 C.ar    1  UNL1        0.0128
     19 C          61.9557   93.8393   -0.6233 C.ar    1  UNL1        0.0208
     20 C          61.7686   96.2224   -5.4351 C.3     1  UNL1        0.0203
     21 C          62.4662   95.1469   -6.2141 C.3     1  UNL1        0.0015
     22 C          62.8679   94.5484   -7.5296 C.3     1  UNL1        0.0000
     23 C          63.2727   93.8826   -6.2479 C.3     1  UNL1        0.0000
     24 O          58.3786   93.2972   -2.1652 O.3     1  UNL1       -0.4403
     25 N          58.0068   92.8850   -3.4188 N.am    1  UNL1       -0.2888
     26 C          56.7772   92.0710   -3.6938 C.2     1  UNL1        0.3040
     27 O          55.7752   91.5819   -2.6904 O.2     1  UNL1       -0.2526
     28 N          56.4465   91.6632   -5.0989 N.am    1  UNL1       -0.2641
     29 C          55.2580   90.8536   -5.5255 C.3     1  UNL1        0.0968
     30 C          55.3232   90.6834   -7.0143 C.3     1  UNL1        0.0234
     31 C          56.5520   91.3878   -7.5080 C.3     1  UNL1        0.0234
     32 C          57.2463   91.9934   -6.3242 C.3     1  UNL1        0.0968
     33 C          57.7172   92.4815   -4.9754 C.3     1  UNL1        0.1165
     34 N          56.8183   92.0754   -3.8453 N.am    1  UNL1       -0.2426
     35 C          57.1490   92.4832   -2.4402 C.2     1  UNL1        0.4048
     36 O          56.0589   91.9185   -1.5784 O.2     1  UNL1       -0.2262
     37 C          55.5887   91.2614   -4.1204 C.3     1  UNL1        0.1165
     38 H          58.5967   93.1515   -4.1605 H       1  UNL1        0.1510
     39 C          59.0927   92.3553   -1.1187 C.3     1  UNL1        0.0230
     40 C          58.3375   93.2928   -2.0137 C.3     1  UNL1        0.0910
@<TRIPOS>BOND
     1    39    40    1
     2    40    25    1
     3    25    26   am
     4    26    27    2
     5    26    28   am
     6    28    29    1
     7    29    30    1
     8    30    31    1
     9    31    32    1
    10    32    33    1
    11    33    34    1
    12    34    35   am
    13    35    36    2
    14    35    24    1
    15    24     1    1
    16     4     1    1
    17     4     5    1
    18     5     6    1
    19     6     7    1
    20     7     8    1
    21     8    20    1
    22    20    21    1
    23    21    22    1
    24    22    23    1
    25     8     9    1
    26     9    10    1
    27    10    11    2
    28    10    12    2
    29    10    13    1
    30    13    14   ar
    31    14    15   ar
    32    15    16   ar
    33    16    17    1
    34    16    18   ar
    35    18    19   ar
    36     1     2    1
    37     2     3    1
    38    34    37    1
    39    32    28    1
    40     3     1    1
    41    37    29    1
    42     9     4    1
    43    19    13   ar
    44    23    21    1
    45    25    38    1
@<TRIPOS>MOLECULE
*****
 40 45 0 0 0
SMALL
GASTEIGER

@<TRIPOS>ATOM
      1 C          59.2826   95.0025   -3.1511 C.3     1  UNL1        0.1550
      2 C          59.0673   96.4836   -3.2493 C.3     1  UNL1        0.0453
      3 C          58.5858   95.7342   -2.0425 C.3     1  UNL1        0.0453
      4 C          59.9899   94.7554   -4.4507 C.3     1  UNL1        0.1455
      5 C          59.2063   94.3656   -5.6688 C.3     1  UNL1        0.1634
      6 O          59.9136   94.1185   -6.9683 O.3     1  UNL1       -0.3507
      7 C          61.4046   94.2612   -7.0496 C.3     1  UNL1        0.1598
      8 C          62.1883   94.6510   -5.8315 C.3     1  UNL1        0.1093
      9 N          61.4809   94.8981   -4.5319 N.3     1  UNL1       -0.1499
     10 S          62.2646   95.2878   -3.3138 S.O2    1  UNL1        0.0635
     11 O          62.5286   93.8407   -3.0206 O.2     1  UNL1       -0.1528
     12 O          61.9069   96.6767   -3.7532 O.2     1  UNL1       -0.1528
     13 C          63.0482   95.6776   -2.0956 C.ar    1  UNL1        0.1223
     14 C          64.5333   95.4697   -2.0609 C.ar    1  UNL1        0.0208
     15 C          65.3170   95.8596   -0.8427 C.ar    1  UNL1        0.0128
     16 C          64.6155   96.4572    0.3409 C.ar    1  UNL1        0.0578
     17 CL         65.3991   96.8470    1.5590 Cl      1  UNL1       -0.0822
     18 C          63.1303   96.6651    0.3062 C.ar    1  UNL1        0.0128
     19 C          62.3467   96.2752   -0.9121 C.ar    1  UNL1        0.0208
     20 C          63.6792   94.7937   -5.9127 C.3     1  UNL1        0.0203
     21 C          64.5496   93.5721   -5.9312 C.3     1  UNL1        0.0015
     22 C          65.3449   92.5551   -6.6949 C.3     1  UNL1        0.0000
     23 C          65.2618   92.4733   -5.1995 C.3     1  UNL1        0.0000
     24 O          59.2523   93.6071   -2.6016 O.3     1  UNL1       -0.4403
     25 N          60.1649   93.3493   -1.6115 N.am    1  UNL1       -0.2888
     26 C          59.7900   93.1157   -0.1781 C.2     1  UNL1        0.3040
     27 O          58.4086   93.1217    0.4063 O.2     1  UNL1       -0.2526
     28 N          60.8561   92.8400    0.8406 N.am    1  UNL1       -0.2641
     29 C          60.6346   92.5885    2.3026 C.3     1  UNL1        0.0968
     30 C          61.9724   92.3605    2.9417 C.3     1  UNL1        0.0234
     31 C          63.0207   92.4710    1.8745 C.3     1  UNL1        0.0234
     32 C          62.3307   92.7673    0.5760 C.3     1  UNL1        0.0968
     33 C          61.3843   93.0557   -0.5644 C.3     1  UNL1        0.1165
     34 N          59.9434   93.0978   -0.1495 N.am    1  UNL1       -0.2426
     35 C          58.8774   93.3735   -1.1681 C.2     1  UNL1        0.4048
     36 O          57.5759   93.3432   -0.4230 O.2     1  UNL1       -0.2262
     37 C          59.5686   92.8642    1.2840 C.3     1  UNL1        0.1165
     38 H          61.1106   93.3216   -1.8838 H       1  UNL1        0.1510
     39 C          58.2673   92.4988   -3.1692 C.3     1  UNL1        0.0230
     40 C          59.0989   93.6250   -2.6302 C.3     1  UNL1        0.0910
@<TRIPOS>BOND
     1    39    40    1
     2    40    25    1
     3    25    26   am
     4    26    27    2
     5    26    28   am
     6    28    29    1
     7    29    30    1
     8    30    31    1
     9    31    32    1
    10    32    33    1
    11    33    34    1
    12    34    35   am
    13    35    36    2
    14    35    24    1
    15    24     1    1
    16     4     1    1
    17     4     5    1
    18     5     6    1
    19     6     7    1
    20     7     8    1
    21     8    20    1
    22    20    21    1
    23    21    22    1
    24    22    23    1
    25     8     9    1
    26     9    10    1
    27    10    11    2
    28    10    12    2
    29    10    13    1
    30    13    14   ar
    31    14    15   ar
    32    15    16   ar
    33    16    17    1
    34    16    18   ar
    35    18    19   ar
    36     1     2    1
    37     2     3    1
    38    34    37    1
    39    32    28    1
    40     3     1    1
    41    37    29    1
    42     9     4    1
    43    19    13   ar
    44    23    21    1
    45    25    38    1
@<TRIPOS>MOLECULE
*****
 40 45 0 0 0
SMALL
GASTEIGER

@<TRIPOS>ATOM
      1 C          59.4166   96.1437   -1.4720 C.3     1  UNL1        0.1550
      2 C          60.6096   96.6805   -0.7382 C.3     1  UNL1        0.0453
      3 C          59.2748   96.6199   -0.0567 C.3     1  UNL1        0.0453
      4 C          60.0490   95.8141   -2.7917 C.3     1  UNL1        0.1455
      5 C          59.6054   96.5267   -4.0347 C.3     1  UNL1        0.1634
      6 O          60.2378   96.1972   -5.3544 O.3     1  UNL1       -0.3507
      7 C          61.3139   95.1550   -5.4309 C.3     1  UNL1        0.1598
      8 C          61.7576   94.4424   -4.1878 C.3     1  UNL1        0.1093
      9 N          61.1251   94.7719   -2.8681 N.3     1  UNL1       -0.1499
     10 S          61.5688   94.0593   -1.6250 S.O2    1  UNL1        0.0635
     11 O          60.3794   93.1505   -1.7215 O.2     1  UNL1       -0.1528
     12 O          62.6953   95.0483   -1.6808 O.2     1  UNL1       -0.1528
     13 C          62.0126   93.3467   -0.3819 C.ar    1  UNL1        0.1223
     14 C          63.3470   93.6608    0.2268 C.ar    1  UNL1        0.0208
     15 C          63.7907   92.9481    1.4699 C.ar    1  UNL1        0.0128
     16 C          62.8999   91.9214    2.1043 C.ar    1  UNL1        0.0578
     17 CL         63.3436   91.2088    3.3474 Cl      1  UNL1       -0.0822
     18 C          61.5654   91.6074    1.4956 C.ar    1  UNL1        0.0128
     19 C          61.1217   92.3201    0.2525 C.ar    1  UNL1        0.0208
     20 C          62.8337   93.4002   -4.2643 C.3     1  UNL1        0.0203
     21 C          63.7866   93.3898   -5.4226 C.3     1  UNL1        0.0015
     22 C          64.2448   92.7981   -6.7226 C.3     1  UNL1        0.0000
     23 C          64.9791   93.9635   -6.1289 C.3     1  UNL1        0.0000
     24 O          58.0039   95.7213   -1.7474 O.3     1  UNL1       -0.4403
     25 N          57.5119   94.8188   -2.6547 N.am    1  UNL1       -0.2888
     26 C          57.0570   93.4375   -2.2876 C.2     1  UNL1        0.3040
     27 O          57.0580   92.8201   -0.9205 O.2     1  UNL1       -0.2526
     28 N          56.5315   92.5146   -3.3469 N.am    1  UNL1       -0.2641
     29 C          56.0432   91.1127   -3.1319 C.3     1  UNL1        0.0968
     30 C          55.6120   90.5633   -4.4594 C.3     1  UNL1        0.0234
     31 C          55.8339   91.6256   -5.4949 C.3     1  UNL1        0.0234
     32 C          56.4022   92.8315   -4.8073 C.3     1  UNL1        0.0968
     33 C          56.9530   93.8756   -3.8661 C.3     1  UNL1        0.1165
     34 N          57.0235   93.4170   -2.4396 N.am    1  UNL1       -0.2426
     35 C          57.5490   94.3398   -1.3803 C.2     1  UNL1        0.4048
     36 O          57.4805   93.5730   -0.0929 O.2     1  UNL1       -0.2262
     37 C          56.5686   92.0356   -2.0725 C.3     1  UNL1        0.1165
     38 H          57.4656   95.1198   -3.5909 H       1  UNL1        0.1510
     39 C          57.1770   96.8560   -1.0773 C.3     1  UNL1        0.0230
     40 C          58.0374   95.7417   -1.5953 C.3     1  UNL1        0.0910
@<TRIPOS>BOND
     1    39    40    1
     2    40    25    1
     3    25    26   am
     4    26    27    2
     5    26    28   am
     6    28    29    1
     7    29    30    1
     8    30    31    1
     9    31    32    1
    10    32    33    1
    11    33    34    1
    12    34    35   am
    13    35    36    2
    14    35    24    1
    15    24     1    1
    16     4     1    1
    17     4     5    1
    18     5     6    1
    19     6     7    1
    20     7     8    1
    21     8    20    1
    22    20    21    1
    23    21    22    1
    24    22    23    1
    25     8     9    1
    26     9    10    1
    27    10    11    2
    28    10    12    2
    29    10    13    1
    30    13    14   ar
    31    14    15   ar
    32    15    16   ar
    33    16    17    1
    34    16    18   ar
    35    18    19   ar
    36     1     2    1
    37     2     3    1
    38    34    37    1
    39    32    28    1
    40     3     1    1
    41    37    29    1
    42     9     4    1
    43    19    13   ar
    44    23    21    1
    45    25    38    1
@<TRIPOS>MOLECULE
*****
 40 45 0 0 0
SMALL
GASTEIGER

@<TRIPOS>ATOM
      1 C          59.1789   95.4369   -1.7240 C.3     1  UNL1        0.1550
      2 C          59.4524   96.5588   -0.7667 C.3     1  UNL1        0.0453
      3 C          58.3814   95.5547   -0.4590 C.3     1  UNL1        0.0453
      4 C          60.1938   95.7461   -2.7845 C.3     1  UNL1        0.1455
      5 C          59.7989   96.5468   -3.9899 C.3     1  UNL1        0.1634
      6 O          60.8137   96.8560   -5.0503 O.3     1  UNL1       -0.3507
      7 C          62.2235   96.3645   -4.9053 C.3     1  UNL1        0.1598
      8 C          62.6184   95.5638   -3.7000 C.3     1  UNL1        0.1093
      9 N          61.6035   95.2546   -2.6395 N.3     1  UNL1       -0.1499
     10 S          61.9984   94.4539   -1.4342 S.O2    1  UNL1        0.0635
     11 O          62.2197   95.7220   -0.6643 O.2     1  UNL1       -0.1528
     12 O          61.7305   93.2927   -2.3453 O.2     1  UNL1       -0.1528
     13 C          62.3933   93.6531   -0.2288 C.ar    1  UNL1        0.1223
     14 C          63.8149   93.6690    0.2493 C.ar    1  UNL1        0.0208
     15 C          64.2098   92.8682    1.4547 C.ar    1  UNL1        0.0128
     16 C          63.1830   92.0516    2.1820 C.ar    1  UNL1        0.0578
     17 CL         63.5779   91.2509    3.3873 Cl      1  UNL1       -0.0822
     18 C          61.7613   92.0357    1.7038 C.ar    1  UNL1        0.0128
     19 C          61.3665   92.8365    0.4984 C.ar    1  UNL1        0.0208
     20 C          64.0281   95.0722   -3.5550 C.3     1  UNL1        0.0203
     21 C          64.5070   93.9142   -4.3793 C.3     1  UNL1        0.0015
     22 C          65.1771   93.3873   -5.6136 C.3     1  UNL1        0.0000
     23 C          64.6665   92.4353   -4.5730 C.3     1  UNL1        0.0000
     24 O          58.5529   94.2076   -2.3131 O.3     1  UNL1       -0.4403
     25 N          57.3120   94.7270   -2.5780 N.am    1  UNL1       -0.2888
     26 C          56.7091   94.7766   -3.9505 C.2     1  UNL1        0.3040
     27 O          57.3280   94.2881   -5.2266 O.2     1  UNL1       -0.2526
     28 N          55.3431   95.3636   -4.1489 N.am    1  UNL1       -0.2641
     29 C          54.6150   95.4808   -5.4551 C.3     1  UNL1        0.0968
     30 C          53.2872   96.1261   -5.1894 C.3     1  UNL1        0.0234
     31 C          53.1947   96.4077   -3.7190 C.3     1  UNL1        0.0234
     32 C          54.4653   95.9365   -3.0760 C.3     1  UNL1        0.0968
     33 C          55.8208   95.3816   -2.7099 C.3     1  UNL1        0.1165
     34 N          56.5839   94.8442   -3.8841 N.am    1  UNL1       -0.2426
     35 C          57.9500   94.2572   -3.6858 C.2     1  UNL1        0.4048
     36 O          58.4154   93.8247   -5.0446 O.2     1  UNL1       -0.2262
     37 C          55.9810   94.8938   -5.2567 C.3     1  UNL1        0.1165
     38 H          56.8112   95.0797   -1.8073 H       1  UNL1        0.1510
     39 C          58.8256   92.7007   -1.9837 C.3     1  UNL1        0.0230
     40 C          58.6781   94.1400   -2.3796 C.3     1  UNL1        0.0910
@<TRIPOS>BOND
     1    39    40    1
     2    40    25    1
     3    25    26   am
     4    26    27    2
     5    26    28   am
     6    28    29    1
     7    29    30    1
     8    30    31    1
     9    31    32    1
    10    32    33    1
    11    33    34    1
    12    34    35   am
    13    35    36    2
    14    35    24    1
    15    24     1    1
    16     4     1    1
    17     4     5    1
    18     5     6    1
    19     6     7    1
    20     7     8    1
    21     8    20    1
    22    20    21    1
    23    21    22    1
    24    22    23    1
    25     8     9    1
    26     9    10    1
    27    10    11    2
    28    10    12    2
    29    10    13    1
    30    13    14   ar
    31    14    15   ar
    32    15    16   ar
    33    16    17    1
    34    16    18   ar
    35    18    19   ar
    36     1     2    1
    37     2     3    1
    38    34    37    1
    39    32    28    1
    40     3     1    1
    41    37    29    1
    42     9     4    1
    43    19    13   ar
    44    23    21    1
    45    25    38    1
@<TRIPOS>MOLECULE
*****
 40 45 0 0 0
SMALL
GASTEIGER

@<TRIPOS>ATOM
      1 C          61.8921   89.3372   11.6073 C.3     1  UNL1        0.1550
      2 C          60.7220   90.1437   12.0872 C.3     1  UNL1        0.0453
      3 C          60.5539   88.6837   11.7871 C.3     1  UNL1        0.0453
      4 C          62.9517   90.3989   11.5924 C.3     1  UNL1        0.1455
      5 C          63.1405   91.2530   10.3739 C.3     1  UNL1        0.1634
      6 O          64.2001   92.3147   10.3590 O.3     1  UNL1       -0.3507
      7 C          65.0709   92.5222   11.5627 C.3     1  UNL1        0.1598
      8 C          64.8821   91.6680   12.7812 C.3     1  UNL1        0.1093
      9 N          63.8224   90.6063   12.7961 N.3     1  UNL1       -0.1499
     10 S          63.6336   89.7522   14.0145 S.O2    1  UNL1        0.0635
     11 O          64.5410   88.7127   13.4265 O.2     1  UNL1       -0.1528
     12 O          62.7559   90.8881   14.4497 O.2     1  UNL1       -0.1528
     13 C          63.4448   88.8980   15.2331 C.ar    1  UNL1        0.1223
     14 C          62.9602   89.5132   16.5124 C.ar    1  UNL1        0.0208
     15 C          62.7713   88.6589   17.7309 C.ar    1  UNL1        0.0128
     16 C          63.0672   87.1897   17.6701 C.ar    1  UNL1        0.0578
     17 CL         62.8783   86.3355   18.8886 Cl      1  UNL1       -0.0822
     18 C          63.5518   86.5745   16.3907 C.ar    1  UNL1        0.0128
     19 C          63.7406   87.4288   15.1722 C.ar    1  UNL1        0.0208
     20 C          65.7528   91.8755   13.9848 C.3     1  UNL1        0.0203
     21 C          67.2422   91.9574   13.8278 C.3     1  UNL1        0.0015
     22 C          68.5914   92.2933   14.3909 C.3     1  UNL1        0.0000
     23 C          68.4731   91.7635   12.9926 C.3     1  UNL1        0.0000
     24 O          62.6942   88.1619   11.1325 O.3     1  UNL1       -0.4403
     25 N          63.0700   87.0119   11.7773 N.am    1  UNL1       -0.2888
     26 C          62.4029   85.6854   11.5642 C.2     1  UNL1        0.3040
     27 O          61.2536   85.3899   10.6468 O.2     1  UNL1       -0.2526
     28 N          62.8803   84.4768   12.3135 N.am    1  UNL1       -0.2641
     29 C          62.3147   83.0918   12.2049 C.3     1  UNL1        0.0968
     30 C          63.0919   82.2000   13.1273 C.3     1  UNL1        0.0234
     31 C          64.1378   83.0339   13.8060 C.3     1  UNL1        0.0234
     32 C          64.0070   84.4411   13.3030 C.3     1  UNL1        0.0968
     33 C          63.6490   85.7448   12.6311 C.3     1  UNL1        0.1165
     34 N          62.5044   85.6268   11.6687 N.am    1  UNL1       -0.2426
     35 C          62.0271   86.8354   10.9194 C.2     1  UNL1        0.4048
     36 O          60.8901   86.3669   10.0605 O.2     1  UNL1       -0.2262
     37 C          61.8373   84.3004   11.4556 C.3     1  UNL1        0.1165
     38 H          63.8212   87.0893   12.4090 H       1  UNL1        0.1510
     39 C          62.6201   88.2323    9.5283 C.3     1  UNL1        0.0230
     40 C          62.5926   88.2205   11.0280 C.3     1  UNL1        0.0910
@<TRIPOS>BOND
     1    39    40    1
     2    40    25    1
     3    25    26   am
     4    26    27    2
     5    26    28   am
     6    28    29    1
     7    29    30    1
     8    30    31    1
     9    31    32    1
    10    32    33    1
    11    33    34    1
    12    34    35   am
    13    35    36    2
    14    35    24    1
    15    24     1    1
    16     4     1    1
    17     4     5    1
    18     5     6    1
    19     6     7    1
    20     7     8    1
    21     8    20    1
    22    20    21    1
    23    21    22    1
    24    22    23    1
    25     8     9    1
    26     9    10    1
    27    10    11    2
    28    10    12    2
    29    10    13    1
    30    13    14   ar
    31    14    15   ar
    32    15    16   ar
    33    16    17    1
    34    16    18   ar
    35    18    19   ar
    36     1     2    1
    37     2     3    1
    38    34    37    1
    39    32    28    1
    40     3     1    1
    41    37    29    1
    42     9     4    1
    43    19    13   ar
    44    23    21    1
    45    25    38    1
@<TRIPOS>MOLECULE
*****
 40 45 0 0 0
SMALL
GASTEIGER

@<TRIPOS>ATOM
      1 C          61.1150   89.4767   11.2808 C.3     1  UNL1        0.1550
      2 C          59.7876   89.6573   11.9557 C.3     1  UNL1        0.0453
      3 C          61.0445   90.1045   12.6413 C.3     1  UNL1        0.0453
      4 C          60.6708   88.8341   10.0002 C.3     1  UNL1        0.1455
      5 C          59.9400   89.6425    8.9695 C.3     1  UNL1        0.1634
      6 O          59.4958   89.0000    7.6889 O.3     1  UNL1       -0.3507
      7 C          59.7825   87.5489    7.4391 C.3     1  UNL1        0.1598
      8 C          60.5133   86.7405    8.4698 C.3     1  UNL1        0.1093
      9 N          60.9575   87.3831    9.7504 N.3     1  UNL1       -0.1499
     10 S          61.6883   86.5747   10.7811 S.O2    1  UNL1        0.0635
     11 O          60.5292   86.7255   11.7211 O.2     1  UNL1       -0.1528
     12 O          62.7497   86.5237    9.7223 O.2     1  UNL1       -0.1528
     13 C          62.4191   85.7663   11.8118 C.ar    1  UNL1        0.1223
     14 C          62.3929   84.2680   11.7466 C.ar    1  UNL1        0.0208
     15 C          63.1238   83.4596   12.7774 C.ar    1  UNL1        0.0128
     16 C          63.8809   84.1495   13.8732 C.ar    1  UNL1        0.0578
     17 CL         64.6117   83.3412   14.9039 Cl      1  UNL1       -0.0822
     18 C          63.9071   85.6479   13.9383 C.ar    1  UNL1        0.0128
     19 C          63.1761   86.4563   12.9076 C.ar    1  UNL1        0.0208
     20 C          60.7999   85.2895    8.2200 C.3     1  UNL1        0.0203
     21 C          61.5067   84.8699    6.9653 C.3     1  UNL1        0.0015
     22 C          62.7365   84.8658    6.1064 C.3     1  UNL1        0.0000
     23 C          61.5011   84.1473    5.6508 C.3     1  UNL1        0.0000
     24 O          62.5966   89.5194   11.0506 O.3     1  UNL1       -0.4403
     25 N          63.4595   89.9621   12.0196 N.am    1  UNL1       -0.2888
     26 C          64.1711   91.2810   11.9572 C.2     1  UNL1        0.3040
     27 O          64.0717   92.3099   10.8702 O.2     1  UNL1       -0.2526
     28 N          65.0991   91.6856   13.0640 N.am    1  UNL1       -0.2641
     29 C          65.8760   92.9666   13.1393 C.3     1  UNL1        0.0968
     30 C          66.6702   92.9530   14.4116 C.3     1  UNL1        0.0234
     31 C          66.3843   91.6636   15.1228 C.3     1  UNL1        0.0234
     32 C          65.4133   90.8804   14.2899 C.3     1  UNL1        0.0968
     33 C          64.4527   90.3286   13.2642 C.3     1  UNL1        0.1165
     34 N          64.2363   91.2430   12.0949 N.am    1  UNL1       -0.2426
     35 C          63.3082   90.8384   10.9881 C.2     1  UNL1        0.4048
     36 O          63.3273   91.9663    9.9995 O.2     1  UNL1       -0.2262
     37 C          64.9479   92.5620   12.0325 C.3     1  UNL1        0.1165
     38 H          63.6015   89.3620   12.7871 H       1  UNL1        0.1510
     39 C          62.9759   89.6655    9.4842 C.3     1  UNL1        0.0230
     40 C          62.5314   89.5574   10.9128 C.3     1  UNL1        0.0910
@<TRIPOS>BOND
     1    39    40    1
     2    40    25    1
     3    25    26   am
     4    26    27    2
     5    26    28   am
     6    28    29    1
     7    29    30    1
     8    30    31    1
     9    31    32    1
    10    32    33    1
    11    33    34    1
    12    34    35   am
    13    35    36    2
    14    35    24    1
    15    24     1    1
    16     4     1    1
    17     4     5    1
    18     5     6    1
    19     6     7    1
    20     7     8    1
    21     8    20    1
    22    20    21    1
    23    21    22    1
    24    22    23    1
    25     8     9    1
    26     9    10    1
    27    10    11    2
    28    10    12    2
    29    10    13    1
    30    13    14   ar
    31    14    15   ar
    32    15    16   ar
    33    16    17    1
    34    16    18   ar
    35    18    19   ar
    36     1     2    1
    37     2     3    1
    38    34    37    1
    39    32    28    1
    40     3     1    1
    41    37    29    1
    42     9     4    1
    43    19    13   ar
    44    23    21    1
    45    25    38    1
@<TRIPOS>MOLECULE
*****
 40 45 0 0 0
SMALL
GASTEIGER

@<TRIPOS>ATOM
      1 C          62.7670   84.5021   13.6227 C.3     1  UNL1        0.1550
      2 C          61.4857   83.7224   13.6030 C.3     1  UNL1        0.0453
      3 C          61.8224   84.5819   14.7853 C.3     1  UNL1        0.0453
      4 C          63.3351   84.1034   12.2929 C.3     1  UNL1        0.1455
      5 C          64.1544   82.8528   12.1718 C.3     1  UNL1        0.1634
      6 O          64.7224   82.4541   10.8420 O.3     1  UNL1       -0.3507
      7 C          64.4711   83.3061    9.6333 C.3     1  UNL1        0.1598
      8 C          63.6518   84.5567    9.7543 C.3     1  UNL1        0.1093
      9 N          63.0837   84.9554   11.0842 N.3     1  UNL1       -0.1499
     10 S          62.2644   86.2060   11.2052 S.O2    1  UNL1        0.0635
     11 O          63.5110   86.9970   11.4704 O.2     1  UNL1       -0.1528
     12 O          61.1270   85.2684   10.9272 O.2     1  UNL1       -0.1528
     13 C          61.4450   87.4566   11.3262 C.ar    1  UNL1        0.1223
     14 C          59.9484   87.3818   11.2612 C.ar    1  UNL1        0.0208
     15 C          59.1290   88.6326   11.3823 C.ar    1  UNL1        0.0128
     16 C          59.8064   89.9579   11.5683 C.ar    1  UNL1        0.0578
     17 CL         58.9871   91.2085   11.6893 Cl      1  UNL1       -0.0822
     18 C          61.3032   90.0326   11.6334 C.ar    1  UNL1        0.0128
     19 C          62.1225   88.7819   11.5123 C.ar    1  UNL1        0.0208
     20 C          63.4005   85.4086    8.5456 C.3     1  UNL1        0.0203
     21 C          62.2027   85.1488    7.6809 C.3     1  UNL1        0.0015
     22 C          61.5916   84.5249    6.4613 C.3     1  UNL1        0.0000
     23 C          60.7389   85.3227    7.4028 C.3     1  UNL1        0.0000
     24 O          63.8509   85.4203   14.1043 O.3     1  UNL1       -0.4403
     25 N          63.9834   86.7849   14.1152 N.am    1  UNL1       -0.2888
     26 C          63.7635   87.6300   15.3348 C.2     1  UNL1        0.3040
     27 O          63.3757   87.1557   16.7040 O.2     1  UNL1       -0.2526
     28 N          63.9306   89.1186   15.2558 N.am    1  UNL1       -0.2641
     29 C          63.7453   90.0878   16.3855 C.3     1  UNL1        0.0968
     30 C          64.0125   91.4675   15.8612 C.3     1  UNL1        0.0234
     31 C          64.3628   91.3511   14.4073 C.3     1  UNL1        0.0234
     32 C          64.3122   89.8993   14.0332 C.3     1  UNL1        0.0968
     33 C          64.1851   88.3975   13.9464 C.3     1  UNL1        0.1165
     34 N          63.7981   87.7541   15.2450 N.am    1  UNL1       -0.2426
     35 C          63.6310   86.2655   15.3240 C.2     1  UNL1        0.4048
     36 O          63.2482   85.9672   16.7433 O.2     1  UNL1       -0.2262
     37 C          63.5782   88.5992   16.4645 C.3     1  UNL1        0.1165
     38 H          64.2373   87.2072   13.2629 H       1  UNL1        0.1510
     39 C          64.9590   84.4363   14.6468 C.3     1  UNL1        0.0230
     40 C          63.8163   85.2963   14.1942 C.3     1  UNL1        0.0910
@<TRIPOS>BOND
     1    39    40    1
     2    40    25    1
     3    25    26   am
     4    26    27    2
     5    26    28   am
     6    28    29    1
     7    29    30    1
     8    30    31    1
     9    31    32    1
    10    32    33    1
    11    33    34    1
    12    34    35   am
    13    35    36    2
    14    35    24    1
    15    24     1    1
    16     4     1    1
    17     4     5    1
    18     5     6    1
    19     6     7    1
    20     7     8    1
    21     8    20    1
    22    20    21    1
    23    21    22    1
    24    22    23    1
    25     8     9    1
    26     9    10    1
    27    10    11    2
    28    10    12    2
    29    10    13    1
    30    13    14   ar
    31    14    15   ar
    32    15    16   ar
    33    16    17    1
    34    16    18   ar
    35    18    19   ar
    36     1     2    1
    37     2     3    1
    38    34    37    1
    39    32    28    1
    40     3     1    1
    41    37    29    1
    42     9     4    1
    43    19    13   ar
    44    23    21    1
    45    25    38    1
