@<TRIPOS>MOLECULE
*****
 37 41 0 0 0
SMALL
GASTEIGER

@<TRIPOS>ATOM
      1 N          63.0894   90.3069   10.7871 N.pl3   1  UNL1       -0.2740
      2 C          63.7174   91.4287   10.0143 C.3     1  UNL1        0.1079
      3 C          64.5287   92.2525   10.9699 C.3     1  UNL1        0.1498
      4 C          65.3663   93.4814   10.7747 C.2     1  UNL1        0.2919
      5 O          65.4930   94.0941    9.4113 O.2     1  UNL1       -0.2563
      6 N          66.0774   94.0977   11.9429 N.am    1  UNL1       -0.1449
      7 C          66.9151   95.3267   11.7477 C.3     1  UNL1        0.2159
      8 C          65.9508   93.4851   13.3062 C.2     1  UNL1        0.3728
      9 N          66.6618   94.1014   14.4744 N.2     1  UNL1       -0.1329
     10 N          65.1131   92.2562   13.5014 N.pl3   1  UNL1       -0.2247
     11 C          64.4021   91.6399   12.3332 C.3     1  UNL1        0.1559
     12 C          63.5126   90.4374   12.2203 C.3     1  UNL1        0.1327
     13 H          67.2116   94.9080   14.3463 H       1  UNL1        0.3058
     14 H          65.0300   91.8542   14.3962 H       1  UNL1        0.2454
     15 C          61.3928   86.7708   10.1802 C.ar    1  UNL1        0.2569
     16 N          62.2870   87.8363   10.7419 N.ar    1  UNL1       -0.1768
     17 C          62.1953   89.2415   10.2254 C.ar    1  UNL1        0.2226
     18 N          61.2094   89.5814    9.1472 N.ar    1  UNL1       -0.2155
     19 C          60.3153   88.5160    8.5855 C.ar    1  UNL1        0.0942
     20 C          59.3295   88.8559    7.5073 C.3     1  UNL1        0.0548
     21 C          60.4070   87.1107    9.1020 C.ar    1  UNL1        0.2065
     22 F          59.5128   86.0454    8.5403 F       1  UNL1       -0.1980
     23 C          62.4295   85.0376   11.8146 C.3     1  UNL1        0.2543
     24 O          61.4846   85.3656   10.6968 O.3     1  UNL1       -0.4545
     25 C          64.1827   90.9193   13.6304 C.ar    1  UNL1        0.0397
     26 C          63.9514   89.4462   13.7924 C.ar    1  UNL1        0.0057
     27 C          63.7818   89.1617   15.2554 C.ar    1  UNL1        0.0068
     28 C          63.9084   90.4590   15.9976 C.ar    1  UNL1        0.0352
     29 S          64.1561   91.5453   14.9932 S.2     1  UNL1       -0.0878
     30 C          63.5299   87.8161   15.8686 C.ar    1  UNL1        0.0012
     31 C          62.9354   87.7173   17.2422 C.ar    1  UNL1        0.0001
     32 C          62.6835   86.3717   17.8554 C.ar    1  UNL1        0.0007
     33 C          63.0261   85.1250   17.0949 C.ar    1  UNL1        0.0103
     34 C          63.6207   85.2239   15.7213 C.ar    1  UNL1        0.0684
     35 C          63.8726   86.5694   15.1081 C.ar    1  UNL1        0.0103
     36 C          63.9633   83.9770   14.9609 C.1     1  UNL1        0.1004
     37 N          64.3059   82.7302   14.2006 N.1     1  UNL1       -0.1908
@<TRIPOS>BOND
     1    23    24    1
     2    24    15    1
     3    15    16   ar
     4    16    17   ar
     5    17     1    1
     6     1     2    1
     7     3     2    1
     8     3     4    1
     9     4     5    2
    10     4     6   am
    11     6     7    1
    12     6     8    1
    13     8     9    2
    14     8    10    1
    15    10    11    1
    16    11    25    1
    17    25    26   ar
    18    26    27   ar
    19    27    30    1
    20    30    31   ar
    21    31    32   ar
    22    32    33   ar
    23    33    34   ar
    24    34    36    1
    25    36    37    3
    26    34    35   ar
    27    27    28   ar
    28    28    29   ar
    29    11    12    1
    30    17    18   ar
    31    18    19   ar
    32    19    20    1
    33    19    21   ar
    34    21    22    1
    35    21    15   ar
    36    12     1    1
    37    11     3    1
    38    29    25   ar
    39    35    30   ar
    40     9    13    1
    41    10    14    1
@<TRIPOS>MOLECULE
*****
 37 41 0 0 0
SMALL
GASTEIGER

@<TRIPOS>ATOM
      1 N          62.0934   85.8013   11.4488 N.pl3   1  UNL1       -0.2740
      2 C          61.4226   85.2710   10.2164 C.3     1  UNL1        0.1079
      3 C          60.9171   86.4402    9.4244 C.3     1  UNL1        0.1498
      4 C          60.1768   86.5259    8.1226 C.2     1  UNL1        0.2919
      5 O          59.8184   85.2731    7.3796 O.2     1  UNL1       -0.2563
      6 N          59.7948   87.8646    7.5638 N.am    1  UNL1       -0.1449
      7 C          59.0545   87.9503    6.2620 C.3     1  UNL1        0.2159
      8 C          60.1532   89.1174    8.3067 C.2     1  UNL1        0.3728
      9 N          59.7712   90.4560    7.7479 N.2     1  UNL1       -0.1329
     10 N          60.8935   89.0317    9.6084 N.pl3   1  UNL1       -0.2247
     11 C          61.2755   87.6931   10.1673 C.3     1  UNL1        0.1559
     12 C          62.0025   87.2982   11.4185 C.3     1  UNL1        0.1327
     13 H          59.2853   90.5123    6.8935 H       1  UNL1        0.3058
     14 H          61.1287   89.8540   10.0960 H       1  UNL1        0.2454
     15 C          63.7858   84.7962   14.8950 C.ar    1  UNL1        0.2569
     16 N          63.1378   85.6185   13.8207 N.ar    1  UNL1       -0.1768
     17 C          62.7414   84.9790   12.5230 C.ar    1  UNL1        0.2226
     18 N          62.9929   83.5172   12.2996 N.ar    1  UNL1       -0.2155
     19 C          63.6409   82.6950   13.3739 C.ar    1  UNL1        0.0942
     20 C          63.8925   81.2332   13.1505 C.3     1  UNL1        0.0548
     21 C          64.0374   83.3344   14.6716 C.ar    1  UNL1        0.2065
     22 F          64.6853   82.5121   15.7458 F       1  UNL1       -0.1980
     23 C          63.1404   86.0714   17.0646 C.3     1  UNL1        0.2543
     24 O          64.1822   85.4358   16.1926 O.3     1  UNL1       -0.4545
     25 C          61.6996   88.8532   11.0184 C.ar    1  UNL1        0.0397
     26 C          63.1055   89.3408   11.2070 C.ar    1  UNL1        0.0057
     27 C          63.0671   90.5183   12.1356 C.ar    1  UNL1        0.0068
     28 C          61.6374   90.7583   12.5208 C.ar    1  UNL1        0.0352
     29 S          60.7923   89.7292   11.8303 S.2     1  UNL1       -0.0878
     30 C          64.2506   91.3156   12.5977 C.ar    1  UNL1        0.0012
     31 C          64.8547   91.0491   13.9446 C.ar    1  UNL1        0.0001
     32 C          66.0382   91.8464   14.4067 C.ar    1  UNL1        0.0007
     33 C          66.6175   92.9103   13.5220 C.ar    1  UNL1        0.0103
     34 C          66.0133   93.1767   12.1752 C.ar    1  UNL1        0.0684
     35 C          64.8299   92.3795   11.7130 C.ar    1  UNL1        0.0103
     36 C          66.5927   94.2406   11.2906 C.1     1  UNL1        0.1004
     37 N          67.1722   95.3045   10.4060 N.1     1  UNL1       -0.1908
@<TRIPOS>BOND
     1    23    24    1
     2    24    15    1
     3    15    16   ar
     4    16    17   ar
     5    17     1    1
     6     1     2    1
     7     3     2    1
     8     3     4    1
     9     4     5    2
    10     4     6   am
    11     6     7    1
    12     6     8    1
    13     8     9    2
    14     8    10    1
    15    10    11    1
    16    11    25    1
    17    25    26   ar
    18    26    27   ar
    19    27    30    1
    20    30    31   ar
    21    31    32   ar
    22    32    33   ar
    23    33    34   ar
    24    34    36    1
    25    36    37    3
    26    34    35   ar
    27    27    28   ar
    28    28    29   ar
    29    11    12    1
    30    17    18   ar
    31    18    19   ar
    32    19    20    1
    33    19    21   ar
    34    21    22    1
    35    21    15   ar
    36    12     1    1
    37    11     3    1
    38    29    25   ar
    39    35    30   ar
    40     9    13    1
    41    10    14    1
@<TRIPOS>MOLECULE
*****
 37 41 0 0 0
SMALL
GASTEIGER

@<TRIPOS>ATOM
      1 N          62.1009   85.8164   11.3865 N.pl3   1  UNL1       -0.2740
      2 C          61.4172   85.2979   10.1562 C.3     1  UNL1        0.1079
      3 C          60.9073   86.4748    9.3784 C.3     1  UNL1        0.1498
      4 C          60.1550   86.5730    8.0844 C.2     1  UNL1        0.2919
      5 O          59.7864   85.3271    7.3347 O.2     1  UNL1       -0.2563
      6 N          59.7713   87.9171    7.5401 N.am    1  UNL1       -0.1449
      7 C          59.0190   88.0153    6.2461 C.3     1  UNL1        0.2159
      8 C          60.1398   89.1629    8.2898 C.2     1  UNL1        0.3728
      9 N          59.7561   90.5070    7.7455 N.2     1  UNL1       -0.1329
     10 N          60.8921   89.0647    9.5838 N.pl3   1  UNL1       -0.2247
     11 C          61.2758   87.7207   10.1281 C.3     1  UNL1        0.1559
     12 C          62.0135   87.3138   11.3692 C.3     1  UNL1        0.1327
     13 H          59.2623   90.5715    6.8962 H       1  UNL1        0.3058
     14 H          61.1340   89.8824   10.0758 H       1  UNL1        0.2454
     15 C          63.5724   82.6728   13.3108 C.ar    1  UNL1        0.2569
     16 N          62.9165   83.5056   12.2494 N.ar    1  UNL1       -0.1768
     17 C          62.7568   84.9838   12.4479 C.ar    1  UNL1        0.2226
     18 N          63.2529   85.6293   13.7077 N.ar    1  UNL1       -0.2155
     19 C          63.9088   84.7966   14.7690 C.ar    1  UNL1        0.0942
     20 C          64.4049   85.4421   16.0288 C.3     1  UNL1        0.0548
     21 C          64.0686   83.3184   14.5706 C.ar    1  UNL1        0.2065
     22 F          64.7244   82.4857   15.6319 F       1  UNL1       -0.1980
     23 C          62.5688   80.2767   13.3443 C.3     1  UNL1        0.2543
     24 O          63.7321   81.1947   13.1123 O.3     1  UNL1       -0.4545
     25 C          61.7109   88.8727   10.9846 C.ar    1  UNL1        0.0397
     26 C          63.1195   89.3569   11.1619 C.ar    1  UNL1        0.0057
     27 C          63.0930   90.5262   12.1011 C.ar    1  UNL1        0.0068
     28 C          61.6680   90.7647   12.5042 C.ar    1  UNL1        0.0352
     29 S          60.8138   89.7427   11.8142 S.2     1  UNL1       -0.0878
     30 C          64.2826   91.3180   12.5570 C.ar    1  UNL1        0.0012
     31 C          64.9073   91.0322   13.8905 C.ar    1  UNL1        0.0001
     32 C          66.0969   91.8240   14.3465 C.ar    1  UNL1        0.0007
     33 C          66.6618   92.9015   13.4690 C.ar    1  UNL1        0.0103
     34 C          66.0370   93.1872   12.1356 C.ar    1  UNL1        0.0684
     35 C          64.8474   92.3955   11.6795 C.ar    1  UNL1        0.0103
     36 C          66.6020   94.2647   11.2581 C.1     1  UNL1        0.1004
     37 N          67.1670   95.3421   10.3806 N.1     1  UNL1       -0.1908
@<TRIPOS>BOND
     1    23    24    1
     2    24    15    1
     3    15    16   ar
     4    16    17   ar
     5    17     1    1
     6     1     2    1
     7     3     2    1
     8     3     4    1
     9     4     5    2
    10     4     6   am
    11     6     7    1
    12     6     8    1
    13     8     9    2
    14     8    10    1
    15    10    11    1
    16    11    25    1
    17    25    26   ar
    18    26    27   ar
    19    27    30    1
    20    30    31   ar
    21    31    32   ar
    22    32    33   ar
    23    33    34   ar
    24    34    36    1
    25    36    37    3
    26    34    35   ar
    27    27    28   ar
    28    28    29   ar
    29    11    12    1
    30    17    18   ar
    31    18    19   ar
    32    19    20    1
    33    19    21   ar
    34    21    22    1
    35    21    15   ar
    36    12     1    1
    37    11     3    1
    38    29    25   ar
    39    35    30   ar
    40     9    13    1
    41    10    14    1
@<TRIPOS>MOLECULE
*****
 37 41 0 0 0
SMALL
GASTEIGER

@<TRIPOS>ATOM
      1 N          64.2758   88.8600   14.2943 N.pl3   1  UNL1       -0.2740
      2 C          65.1915   89.7863   15.0383 C.3     1  UNL1        0.1079
      3 C          65.3709   91.0243   14.2106 C.3     1  UNL1        0.1498
      4 C          66.1632   92.2775   14.4380 C.2     1  UNL1        0.2919
      5 O          66.9680   92.4387   15.6936 O.2     1  UNL1       -0.2563
      6 N          66.1506   93.3697   13.4098 N.am    1  UNL1       -0.1449
      7 C          66.9429   94.6230   13.6372 C.3     1  UNL1        0.2159
      8 C          65.3458   93.2086   12.1544 C.2     1  UNL1        0.3728
      9 N          65.3332   94.3007   11.1262 N.2     1  UNL1       -0.1329
     10 N          64.5535   91.9554   11.9270 N.pl3   1  UNL1       -0.2247
     11 C          64.5661   90.8632   12.9551 C.3     1  UNL1        0.1559
     12 C          63.8893   89.5256   13.0068 C.3     1  UNL1        0.1327
     13 H          65.8532   95.1233   11.2754 H       1  UNL1        0.3058
     14 H          64.0253   91.8496   11.1029 H       1  UNL1        0.2454
     15 C          62.8430   85.9728   16.6098 C.ar    1  UNL1        0.2569
     16 N          63.2932   87.3269   16.1474 N.ar    1  UNL1       -0.1768
     17 C          63.8257   87.5059   14.7566 C.ar    1  UNL1        0.2226
     18 N          63.9079   86.3307   13.8281 N.ar    1  UNL1       -0.2155
     19 C          63.4577   84.9766   14.2904 C.ar    1  UNL1        0.0942
     20 C          63.5400   83.8015   13.3619 C.3     1  UNL1        0.0548
     21 C          62.9253   84.7977   15.6813 C.ar    1  UNL1        0.2065
     22 F          62.4751   83.4435   16.1436 F       1  UNL1       -0.1980
     23 C          62.6125   86.8157   19.0566 C.3     1  UNL1        0.2543
     24 O          62.3106   85.7940   18.0007 O.3     1  UNL1       -0.4545
     25 C          63.7186   90.5614   11.7548 C.ar    1  UNL1        0.0397
     26 C          62.9917   89.2765   11.4893 C.ar    1  UNL1        0.0057
     27 C          62.2731   89.4125   10.1796 C.ar    1  UNL1        0.0068
     28 C          62.5559   90.7815    9.6358 C.ar    1  UNL1        0.0352
     29 S          63.4493   91.4916   10.6093 S.2     1  UNL1       -0.0878
     30 C          61.4213   88.3637    9.5283 C.ar    1  UNL1        0.0012
     31 C          59.9337   88.3798    9.7207 C.ar    1  UNL1        0.0001
     32 C          59.0819   87.3310    9.0693 C.ar    1  UNL1        0.0007
     33 C          59.7175   86.2661    8.2256 C.ar    1  UNL1        0.0103
     34 C          61.2051   86.2500    8.0332 C.ar    1  UNL1        0.0684
     35 C          62.0570   87.2988    8.6845 C.ar    1  UNL1        0.0103
     36 C          61.8407   85.1850    7.1895 C.1     1  UNL1        0.1004
     37 N          62.4763   84.1201    6.3458 N.1     1  UNL1       -0.1908
@<TRIPOS>BOND
     1    23    24    1
     2    24    15    1
     3    15    16   ar
     4    16    17   ar
     5    17     1    1
     6     1     2    1
     7     3     2    1
     8     3     4    1
     9     4     5    2
    10     4     6   am
    11     6     7    1
    12     6     8    1
    13     8     9    2
    14     8    10    1
    15    10    11    1
    16    11    25    1
    17    25    26   ar
    18    26    27   ar
    19    27    30    1
    20    30    31   ar
    21    31    32   ar
    22    32    33   ar
    23    33    34   ar
    24    34    36    1
    25    36    37    3
    26    34    35   ar
    27    27    28   ar
    28    28    29   ar
    29    11    12    1
    30    17    18   ar
    31    18    19   ar
    32    19    20    1
    33    19    21   ar
    34    21    22    1
    35    21    15   ar
    36    12     1    1
    37    11     3    1
    38    29    25   ar
    39    35    30   ar
    40     9    13    1
    41    10    14    1
@<TRIPOS>MOLECULE
*****
 37 41 0 0 0
SMALL
GASTEIGER

@<TRIPOS>ATOM
      1 N          63.1677   84.4322   14.2164 N.pl3   1  UNL1       -0.2740
      2 C          63.2257   83.0335   14.7551 C.3     1  UNL1        0.1079
      3 C          63.0817   82.0860   13.6012 C.3     1  UNL1        0.1498
      4 C          63.0654   80.5879   13.5287 C.2     1  UNL1        0.2919
      5 O          63.2124   79.7747   14.7805 O.2     1  UNL1       -0.2563
      6 N          62.9021   79.9029   12.2042 N.am    1  UNL1       -0.1449
      7 C          62.8859   78.4046   12.1316 C.3     1  UNL1        0.2159
      8 C          62.7551   80.7160   10.9524 C.2     1  UNL1        0.3728
      9 N          62.5919   80.0310    9.6279 N.2     1  UNL1       -0.1329
     10 N          62.7714   82.2141   11.0249 N.pl3   1  UNL1       -0.2247
     11 C          62.9347   82.8991   12.3493 C.3     1  UNL1        0.1559
     12 C          62.9878   84.3492   12.7295 C.3     1  UNL1        0.1327
     13 H          62.5812   79.0477    9.5802 H       1  UNL1        0.3058
     14 H          62.6749   82.7478   10.2032 H       1  UNL1        0.2454
     15 C          63.9056   88.2061   15.1980 C.ar    1  UNL1        0.2569
     16 N          63.8019   86.9456   14.3915 N.ar    1  UNL1       -0.1768
     17 C          63.2713   85.6927   15.0229 C.ar    1  UNL1        0.2226
     18 N          62.8444   85.7002   16.4608 N.ar    1  UNL1       -0.2155
     19 C          62.9481   86.9608   17.2673 C.ar    1  UNL1        0.0942
     20 C          62.5211   86.9683   18.7052 C.3     1  UNL1        0.0548
     21 C          63.4786   88.2137   16.6359 C.ar    1  UNL1        0.2065
     22 F          63.5823   89.4741   17.4424 F       1  UNL1       -0.1980
     23 C          63.4912   90.5456   14.1468 C.3     1  UNL1        0.2543
     24 O          64.4361   89.4590   14.5665 O.3     1  UNL1       -0.4545
     25 C          62.7993   83.8396   11.1886 C.ar    1  UNL1        0.0397
     26 C          61.7844   84.9360   11.0560 C.ar    1  UNL1        0.0057
     27 C          62.0129   85.6228    9.7421 C.ar    1  UNL1        0.0068
     28 C          63.1691   84.9508    9.0628 C.ar    1  UNL1        0.0352
     29 S          63.6551   83.8487    9.9567 S.2     1  UNL1       -0.0878
     30 C          61.2237   86.7787    9.2024 C.ar    1  UNL1        0.0012
     31 C          60.7604   86.7695    7.7758 C.ar    1  UNL1        0.0001
     32 C          59.9713   87.9253    7.2361 C.ar    1  UNL1        0.0007
     33 C          59.6455   89.0903    8.1230 C.ar    1  UNL1        0.0103
     34 C          60.1089   89.0995    9.5496 C.ar    1  UNL1        0.0684
     35 C          60.8980   87.9437   10.0894 C.ar    1  UNL1        0.0103
     36 C          59.7830   90.2646   10.4365 C.1     1  UNL1        0.1004
     37 N          59.4572   91.4296   11.3234 N.1     1  UNL1       -0.1908
@<TRIPOS>BOND
     1    23    24    1
     2    24    15    1
     3    15    16   ar
     4    16    17   ar
     5    17     1    1
     6     1     2    1
     7     3     2    1
     8     3     4    1
     9     4     5    2
    10     4     6   am
    11     6     7    1
    12     6     8    1
    13     8     9    2
    14     8    10    1
    15    10    11    1
    16    11    25    1
    17    25    26   ar
    18    26    27   ar
    19    27    30    1
    20    30    31   ar
    21    31    32   ar
    22    32    33   ar
    23    33    34   ar
    24    34    36    1
    25    36    37    3
    26    34    35   ar
    27    27    28   ar
    28    28    29   ar
    29    11    12    1
    30    17    18   ar
    31    18    19   ar
    32    19    20    1
    33    19    21   ar
    34    21    22    1
    35    21    15   ar
    36    12     1    1
    37    11     3    1
    38    29    25   ar
    39    35    30   ar
    40     9    13    1
    41    10    14    1
@<TRIPOS>MOLECULE
*****
 37 41 0 0 0
SMALL
GASTEIGER

@<TRIPOS>ATOM
      1 N          61.4803   93.4406   -0.5279 N.pl3   1  UNL1       -0.2740
      2 C          62.7076   93.8581   -1.2825 C.3     1  UNL1        0.1079
      3 C          62.2784   94.3340   -2.6387 C.3     1  UNL1        0.1498
      4 C          63.0538   94.8637   -3.8083 C.2     1  UNL1        0.2919
      5 O          64.5464   94.9872   -3.7248 O.2     1  UNL1       -0.2563
      6 N          62.3366   95.2700   -5.0616 N.am    1  UNL1       -0.1449
      7 C          63.1120   95.7998   -6.2313 C.3     1  UNL1        0.2159
      8 C          60.8441   95.1466   -5.1451 C.2     1  UNL1        0.3728
      9 N          60.1269   95.5529   -6.3984 N.2     1  UNL1       -0.1329
     10 N          60.0687   94.6168   -3.9755 N.pl3   1  UNL1       -0.2247
     11 C          60.7858   94.2105   -2.7223 C.3     1  UNL1        0.1559
     12 C          60.2926   93.6584   -1.4177 C.3     1  UNL1        0.1327
     13 H          60.6358   95.9006   -7.1661 H       1  UNL1        0.3058
     14 H          59.0890   94.5358   -4.0304 H       1  UNL1        0.2454
     15 C          60.2371   92.6456    3.1562 C.ar    1  UNL1        0.2569
     16 N          60.2709   93.1860    1.7573 N.ar    1  UNL1       -0.1768
     17 C          61.4467   92.9002    0.8710 C.ar    1  UNL1        0.2226
     18 N          62.5889   92.0739    1.3834 N.ar    1  UNL1       -0.2155
     19 C          62.5551   91.5334    2.7823 C.ar    1  UNL1        0.0942
     20 C          63.6973   90.7071    3.2948 C.3     1  UNL1        0.0548
     21 C          61.3793   91.8193    3.6687 C.ar    1  UNL1        0.2065
     22 F          61.3456   91.2788    5.0676 F       1  UNL1       -0.1980
     23 C          58.2749   91.7993    4.6339 C.3     1  UNL1        0.2543
     24 O          59.0612   92.9315    4.0425 O.3     1  UNL1       -0.4545
     25 C          59.2979   94.0313   -2.6592 C.ar    1  UNL1        0.0397
     26 C          58.2792   95.1306   -2.5984 C.ar    1  UNL1        0.0057
     27 C          56.9191   94.5000   -2.5475 C.ar    1  UNL1        0.0068
     28 C          57.0973   93.0109   -2.5767 C.ar    1  UNL1        0.0352
     29 S          58.5674   92.7212   -2.6458 S.2     1  UNL1       -0.0878
     30 C          55.6107   95.2303   -2.4792 C.ar    1  UNL1        0.0012
     31 C          55.1283   95.7841   -1.1713 C.ar    1  UNL1        0.0001
     32 C          53.8198   96.5144   -1.1030 C.ar    1  UNL1        0.0007
     33 C          52.9938   96.6908   -2.3426 C.ar    1  UNL1        0.0103
     34 C          53.4763   96.1369   -3.6505 C.ar    1  UNL1        0.0684
     35 C          54.7847   95.4067   -3.7188 C.ar    1  UNL1        0.0103
     36 C          52.6502   96.3134   -4.8901 C.1     1  UNL1        0.1004
     37 N          51.8241   96.4898   -6.1296 N.1     1  UNL1       -0.1908
@<TRIPOS>BOND
     1    23    24    1
     2    24    15    1
     3    15    16   ar
     4    16    17   ar
     5    17     1    1
     6     1     2    1
     7     3     2    1
     8     3     4    1
     9     4     5    2
    10     4     6   am
    11     6     7    1
    12     6     8    1
    13     8     9    2
    14     8    10    1
    15    10    11    1
    16    11    25    1
    17    25    26   ar
    18    26    27   ar
    19    27    30    1
    20    30    31   ar
    21    31    32   ar
    22    32    33   ar
    23    33    34   ar
    24    34    36    1
    25    36    37    3
    26    34    35   ar
    27    27    28   ar
    28    28    29   ar
    29    11    12    1
    30    17    18   ar
    31    18    19   ar
    32    19    20    1
    33    19    21   ar
    34    21    22    1
    35    21    15   ar
    36    12     1    1
    37    11     3    1
    38    29    25   ar
    39    35    30   ar
    40     9    13    1
    41    10    14    1
@<TRIPOS>MOLECULE
*****
 37 41 0 0 0
SMALL
GASTEIGER

@<TRIPOS>ATOM
      1 N          64.3648   89.2473   14.3895 N.pl3   1  UNL1       -0.2740
      2 C          65.2585   90.2310   15.0849 C.3     1  UNL1        0.1079
      3 C          65.4296   91.4186   14.1847 C.3     1  UNL1        0.1498
      4 C          66.2011   92.6952   14.3431 C.2     1  UNL1        0.2919
      5 O          66.9891   92.9450   15.5947 O.2     1  UNL1       -0.2563
      6 N          66.1845   93.7221   13.2497 N.am    1  UNL1       -0.1449
      7 C          66.9561   94.9987   13.4080 C.3     1  UNL1        0.2159
      8 C          65.3965   93.4723   11.9981 C.2     1  UNL1        0.3728
      9 N          65.3800   94.4992   10.9047 N.2     1  UNL1       -0.1329
     10 N          64.6250   92.1957   11.8397 N.pl3   1  UNL1       -0.2247
     11 C          64.6415   91.1689   12.9330 C.3     1  UNL1        0.1559
     12 C          63.9835   89.8269   13.0596 C.3     1  UNL1        0.1327
     13 H          65.8863   95.3371   11.0086 H       1  UNL1        0.3058
     14 H          64.1078   92.0318   11.0182 H       1  UNL1        0.2454
     15 C          63.5320   85.3722   14.5906 C.ar    1  UNL1        0.2569
     16 N          63.9679   86.7022   14.0509 N.ar    1  UNL1       -0.1768
     17 C          63.9289   87.9174   14.9293 C.ar    1  UNL1        0.2226
     18 N          63.4540   87.8027   16.3475 N.ar    1  UNL1       -0.2155
     19 C          63.0181   86.4728   16.8872 C.ar    1  UNL1        0.0942
     20 C          62.5432   86.3581   18.3054 C.3     1  UNL1        0.0548
     21 C          63.0571   85.2575   16.0088 C.ar    1  UNL1        0.2065
     22 F          62.6212   83.9276   16.5486 F       1  UNL1       -0.1980
     23 C          63.0081   84.2173   12.3230 C.3     1  UNL1        0.2543
     24 O          63.5710   84.1570   13.7121 O.3     1  UNL1       -0.4545
     25 C          63.8123   90.7815   11.7446 C.ar    1  UNL1        0.0397
     26 C          63.0732   89.4881   11.5692 C.ar    1  UNL1        0.0057
     27 C          62.3806   89.5267   10.2391 C.ar    1  UNL1        0.0068
     28 C          62.6917   90.8439    9.5927 C.ar    1  UNL1        0.0352
     29 S          63.5765   91.6195   10.5231 S.2     1  UNL1       -0.0878
     30 C          61.5269   88.4389    9.6578 C.ar    1  UNL1        0.0012
     31 C          60.0564   88.4018    9.9517 C.ar    1  UNL1        0.0001
     32 C          59.2027   87.3141    9.3703 C.ar    1  UNL1        0.0007
     33 C          59.8194   86.2636    8.4951 C.ar    1  UNL1        0.0103
     34 C          61.2899   86.3007    8.2012 C.ar    1  UNL1        0.0684
     35 C          62.1436   87.3884    8.7825 C.ar    1  UNL1        0.0103
     36 C          61.9065   85.2501    7.3260 C.1     1  UNL1        0.1004
     37 N          62.5233   84.1996    6.4508 N.1     1  UNL1       -0.1908
@<TRIPOS>BOND
     1    23    24    1
     2    24    15    1
     3    15    16   ar
     4    16    17   ar
     5    17     1    1
     6     1     2    1
     7     3     2    1
     8     3     4    1
     9     4     5    2
    10     4     6   am
    11     6     7    1
    12     6     8    1
    13     8     9    2
    14     8    10    1
    15    10    11    1
    16    11    25    1
    17    25    26   ar
    18    26    27   ar
    19    27    30    1
    20    30    31   ar
    21    31    32   ar
    22    32    33   ar
    23    33    34   ar
    24    34    36    1
    25    36    37    3
    26    34    35   ar
    27    27    28   ar
    28    28    29   ar
    29    11    12    1
    30    17    18   ar
    31    18    19   ar
    32    19    20    1
    33    19    21   ar
    34    21    22    1
    35    21    15   ar
    36    12     1    1
    37    11     3    1
    38    29    25   ar
    39    35    30   ar
    40     9    13    1
    41    10    14    1
@<TRIPOS>MOLECULE
*****
 37 41 0 0 0
SMALL
GASTEIGER

@<TRIPOS>ATOM
      1 N          63.0969   90.1959   11.7985 N.pl3   1  UNL1       -0.2740
      2 C          62.2584   90.7108   10.6663 C.3     1  UNL1        0.1079
      3 C          61.5576   89.5420   10.0397 C.3     1  UNL1        0.1498
      4 C          60.6027   89.4445    8.8870 C.2     1  UNL1        0.2919
      5 O          60.1973   90.6817    8.1420 O.2     1  UNL1       -0.2563
      6 N          60.0531   88.1096    8.4793 N.am    1  UNL1       -0.1449
      7 C          59.0982   88.0120    7.3266 C.3     1  UNL1        0.2159
      8 C          60.4585   86.8724    9.2242 C.2     1  UNL1        0.3728
      9 N          59.9089   85.5375    8.8165 N.2     1  UNL1       -0.1329
     10 N          61.4133   86.9699   10.3769 N.pl3   1  UNL1       -0.2247
     11 C          61.9629   88.3047   10.7846 C.3     1  UNL1        0.1559
     12 C          62.9143   88.7089   11.8716 C.3     1  UNL1        0.1327
     13 H          59.2822   85.4734    8.0599 H       1  UNL1        0.3058
     14 H          61.6794   86.1579   10.8658 H       1  UNL1        0.2454
     15 C          65.8664   92.7661   13.0128 C.ar    1  UNL1        0.2569
     16 N          64.9977   91.9391   12.1119 N.ar    1  UNL1       -0.1768
     17 C          63.9655   91.0229   12.6994 C.ar    1  UNL1        0.2226
     18 N          63.8019   90.9337   14.1878 N.ar    1  UNL1       -0.2155
     19 C          64.6706   91.7607   15.0886 C.ar    1  UNL1        0.0942
     20 C          64.5070   91.6715   16.5770 C.3     1  UNL1        0.0548
     21 C          65.7028   92.6769   14.5012 C.ar    1  UNL1        0.2065
     22 F          66.5714   93.5038   15.4021 F       1  UNL1       -0.1980
     23 C          66.5361   94.5878   11.2857 C.3     1  UNL1        0.2543
     24 O          66.8986   93.6823   12.4253 O.3     1  UNL1       -0.4545
     25 C          62.4568   87.1607   11.6196 C.ar    1  UNL1        0.0397
     26 C          62.0693   85.7205   11.4595 C.ar    1  UNL1        0.0057
     27 C          62.7979   84.9257   12.5023 C.ar    1  UNL1        0.0068
     28 C          63.6358   85.8747   13.3069 C.ar    1  UNL1        0.0352
     29 S          63.4249   87.2560   12.7614 S.2     1  UNL1       -0.0878
     30 C          62.7050   83.4423   12.7049 C.ar    1  UNL1        0.0012
     31 C          62.4780   82.8859   14.0793 C.ar    1  UNL1        0.0001
     32 C          62.3851   81.4026   14.2819 C.ar    1  UNL1        0.0007
     33 C          62.5192   80.4757   13.1101 C.ar    1  UNL1        0.0103
     34 C          62.7461   81.0322   11.7358 C.ar    1  UNL1        0.0684
     35 C          62.8391   82.5155   11.5331 C.ar    1  UNL1        0.0103
     36 C          62.8802   80.1053   10.5641 C.1     1  UNL1        0.1004
     37 N          63.0141   79.1783    9.3924 N.1     1  UNL1       -0.1908
@<TRIPOS>BOND
     1    23    24    1
     2    24    15    1
     3    15    16   ar
     4    16    17   ar
     5    17     1    1
     6     1     2    1
     7     3     2    1
     8     3     4    1
     9     4     5    2
    10     4     6   am
    11     6     7    1
    12     6     8    1
    13     8     9    2
    14     8    10    1
    15    10    11    1
    16    11    25    1
    17    25    26   ar
    18    26    27   ar
    19    27    30    1
    20    30    31   ar
    21    31    32   ar
    22    32    33   ar
    23    33    34   ar
    24    34    36    1
    25    36    37    3
    26    34    35   ar
    27    27    28   ar
    28    28    29   ar
    29    11    12    1
    30    17    18   ar
    31    18    19   ar
    32    19    20    1
    33    19    21   ar
    34    21    22    1
    35    21    15   ar
    36    12     1    1
    37    11     3    1
    38    29    25   ar
    39    35    30   ar
    40     9    13    1
    41    10    14    1
@<TRIPOS>MOLECULE
*****
 37 41 0 0 0
SMALL
GASTEIGER

@<TRIPOS>ATOM
      1 N          62.4317   89.2463   11.5077 N.pl3   1  UNL1       -0.2740
      2 C          61.4738   90.0105   10.6425 C.3     1  UNL1        0.1079
      3 C          60.8882   89.0562    9.6444 C.3     1  UNL1        0.1498
      4 C          59.8893   89.2453    8.5415 C.2     1  UNL1        0.2919
      5 O          59.2933   90.5993    8.2932 O.2     1  UNL1       -0.2563
      6 N          59.4863   88.0802    7.6868 N.am    1  UNL1       -0.1449
      7 C          58.4873   88.2693    6.5838 C.3     1  UNL1        0.2159
      8 C          60.0822   86.7263    7.9350 C.2     1  UNL1        0.3728
      9 N          59.6793   85.5613    7.0803 N.2     1  UNL1       -0.1329
     10 N          61.0811   86.5373    9.0379 N.pl3   1  UNL1       -0.2247
     11 C          61.4841   87.7022    9.8926 C.3     1  UNL1        0.1559
     12 C          62.4381   87.8197   11.0442 C.3     1  UNL1        0.1327
     13 H          59.0236   85.6853    6.3564 H       1  UNL1        0.3058
     14 H          61.4723   85.6486    9.2008 H       1  UNL1        0.2454
     15 C          63.7435   89.9755   15.1816 C.ar    1  UNL1        0.2569
     16 N          62.9341   89.4121   14.0513 N.ar    1  UNL1       -0.1768
     17 C          63.2411   89.8098   12.6379 C.ar    1  UNL1        0.2226
     18 N          64.3574   90.7708   12.3547 N.ar    1  UNL1       -0.2155
     19 C          65.1667   91.3342   13.4851 C.ar    1  UNL1        0.0942
     20 C          66.2831   92.2953   13.2019 C.3     1  UNL1        0.0548
     21 C          64.8598   90.9366   14.8984 C.ar    1  UNL1        0.2065
     22 F          65.6692   91.5000   16.0287 F       1  UNL1       -0.1980
     23 C          63.0458   88.1640   16.9083 C.3     1  UNL1        0.2543
     24 O          63.4365   89.5779   16.5949 O.3     1  UNL1       -0.4545
     25 C          62.1614   86.4146   10.2576 C.ar    1  UNL1        0.0397
     26 C          61.8989   85.5984   11.4884 C.ar    1  UNL1        0.0057
     27 C          62.7954   84.3964   11.4474 C.ar    1  UNL1        0.0068
     28 C          63.6119   84.4697   10.1912 C.ar    1  UNL1        0.0352
     29 S          63.2200   85.7171    9.4559 S.2     1  UNL1       -0.0878
     30 C          62.8634   83.3116   12.4811 C.ar    1  UNL1        0.0012
     31 C          64.1596   83.0192   13.1773 C.ar    1  UNL1        0.0001
     32 C          64.2276   81.9344   14.2110 C.ar    1  UNL1        0.0007
     33 C          62.9995   81.1420   14.5485 C.ar    1  UNL1        0.0103
     34 C          61.7034   81.4344   13.8523 C.ar    1  UNL1        0.0684
     35 C          61.6353   82.5192   12.8186 C.ar    1  UNL1        0.0103
     36 C          60.4754   80.6419   14.1899 C.1     1  UNL1        0.1004
     37 N          59.2473   79.8495   14.5274 N.1     1  UNL1       -0.1908
@<TRIPOS>BOND
     1    23    24    1
     2    24    15    1
     3    15    16   ar
     4    16    17   ar
     5    17     1    1
     6     1     2    1
     7     3     2    1
     8     3     4    1
     9     4     5    2
    10     4     6   am
    11     6     7    1
    12     6     8    1
    13     8     9    2
    14     8    10    1
    15    10    11    1
    16    11    25    1
    17    25    26   ar
    18    26    27   ar
    19    27    30    1
    20    30    31   ar
    21    31    32   ar
    22    32    33   ar
    23    33    34   ar
    24    34    36    1
    25    36    37    3
    26    34    35   ar
    27    27    28   ar
    28    28    29   ar
    29    11    12    1
    30    17    18   ar
    31    18    19   ar
    32    19    20    1
    33    19    21   ar
    34    21    22    1
    35    21    15   ar
    36    12     1    1
    37    11     3    1
    38    29    25   ar
    39    35    30   ar
    40     9    13    1
    41    10    14    1
