@<TRIPOS>MOLECULE
*****
 25 28 0 0 0
SMALL
GASTEIGER

@<TRIPOS>ATOM
      1 C          59.4039   88.8743    7.3304 C.ar    1  UNL1       -0.0209
      2 C          59.3078   87.3780    7.3690 C.ar    1  UNL1       -0.0041
      3 C          60.0368   86.6067    8.4290 C.ar    1  UNL1        0.0048
      4 C          60.8619   87.3318    9.4504 C.ar    1  UNL1        0.0623
      5 C          60.9581   88.8282    9.4118 C.ar    1  UNL1        0.0771
      6 C          60.2291   89.5994    8.3518 C.ar    1  UNL1        0.0125
      7 N          61.7833   89.5533   10.4332 N.am    1  UNL1       -0.1721
      8 C          62.5123   88.7821   11.4933 C.2     1  UNL1        0.3160
      9 O          63.3374   89.5072   12.5147 O.2     1  UNL1       -0.2638
     10 C          62.4161   87.2856   11.5319 C.2     1  UNL1        0.2907
     11 N          63.0186   86.2646   12.4508 N.2     1  UNL1       -0.0256
     12 C          62.5658   84.9083   11.9972 C.2     1  UNL1        0.3765
     13 N          61.6835   85.0912   10.7981 N.2     1  UNL1       -0.0302
     14 C          61.5909   86.5605   10.5105 C.2     1  UNL1        0.2419
     15 C          62.9312   83.5990   12.6316 C.ar    1  UNL1        0.0989
     16 C          62.3166   83.2028   13.9413 C.ar    1  UNL1        0.0085
     17 C          62.6821   81.8936   14.5755 C.ar    1  UNL1        0.0003
     18 C          63.6620   80.9806   13.9001 C.ar    1  UNL1        0.0009
     19 C          64.2766   81.3769   12.5905 C.ar    1  UNL1        0.0116
     20 C          63.9112   82.6861   11.9562 C.ar    1  UNL1        0.0651
     21 CL         64.5257   83.0824   10.6465 Cl      1  UNL1       -0.0820
     22 C          58.6749   89.6456    6.2703 C.3     1  UNL1        0.0264
     23 C          59.3782   90.7372    5.5196 C.3     1  UNL1        0.0047
     24 C          57.0854   91.7025    4.7702 C.3     1  UNL1        0.0000
     25 C          58.5846   91.7399    4.7355 C.3     1  UNL1        0.0003
@<TRIPOS>BOND
     1    24    25    1
     2    25    23    1
     3    23    22    1
     4    22     1    1
     5     1     2   ar
     6     2     3   ar
     7     3     4   ar
     8     4     5   ar
     9     5     6   ar
    10     5     7    2
    11     7     8    1
    12     8     9    2
    13     8    10    1
    14    10    11    2
    15    11    12    1
    16    12    15    1
    17    15    16   ar
    18    16    17   ar
    19    17    18   ar
    20    18    19   ar
    21    19    20   ar
    22    20    21    1
    23    12    13    2
    24    13    14    1
    25     6     1   ar
    26    14    10    1
    27    14     4    2
    28    20    15   ar
@<TRIPOS>MOLECULE
*****
 25 28 0 0 0
SMALL
GASTEIGER

@<TRIPOS>ATOM
      1 C          63.1261   82.3967   12.6604 C.ar    1  UNL1       -0.0209
      2 C          63.9028   82.9589   13.8139 C.ar    1  UNL1       -0.0041
      3 C          64.0426   84.4440   13.9713 C.ar    1  UNL1        0.0048
      4 C          63.4056   85.3670   12.9752 C.ar    1  UNL1        0.0623
      5 C          62.6289   84.8049   11.8217 C.ar    1  UNL1        0.0771
      6 C          62.4892   83.3197   11.6643 C.ar    1  UNL1        0.0125
      7 N          61.9919   85.7279   10.8254 N.am    1  UNL1       -0.1721
      8 C          62.1317   87.2131   10.9828 C.2     1  UNL1        0.3160
      9 O          61.4948   88.1361    9.9867 O.2     1  UNL1       -0.2638
     10 C          62.9085   87.7752   12.1364 C.2     1  UNL1        0.2907
     11 N          63.2148   89.1846   12.5484 N.2     1  UNL1       -0.0256
     12 C          64.0412   89.1326   13.7992 C.2     1  UNL1        0.3765
     13 N          64.2455   87.6911   14.1602 N.2     1  UNL1       -0.0302
     14 C          63.5454   86.8522   13.1326 C.2     1  UNL1        0.2419
     15 C          64.5703   90.3147   14.5560 C.ar    1  UNL1        0.0989
     16 C          65.6708   91.1488   13.9704 C.ar    1  UNL1        0.0085
     17 C          66.1999   92.3308   14.7272 C.ar    1  UNL1        0.0003
     18 C          65.6285   92.6787   16.0698 C.ar    1  UNL1        0.0009
     19 C          64.5280   91.8446   16.6555 C.ar    1  UNL1        0.0116
     20 C          63.9989   90.6626   15.8986 C.ar    1  UNL1        0.0651
     21 CL         62.8983   89.8284   16.4843 Cl      1  UNL1       -0.0820
     22 C          62.9863   80.9116   12.5030 C.3     1  UNL1        0.0264
     23 C          62.0777   80.1428   13.4159 C.3     1  UNL1        0.0047
     24 C          59.5998   80.2890   14.1832 C.3     1  UNL1        0.0000
     25 C          60.9892   80.8541   14.1637 C.3     1  UNL1        0.0003
@<TRIPOS>BOND
     1    24    25    1
     2    25    23    1
     3    23    22    1
     4    22     1    1
     5     1     2   ar
     6     2     3   ar
     7     3     4   ar
     8     4     5   ar
     9     5     6   ar
    10     5     7    2
    11     7     8    1
    12     8     9    2
    13     8    10    1
    14    10    11    2
    15    11    12    1
    16    12    15    1
    17    15    16   ar
    18    16    17   ar
    19    17    18   ar
    20    18    19   ar
    21    19    20   ar
    22    20    21    1
    23    12    13    2
    24    13    14    1
    25     6     1   ar
    26    14    10    1
    27    14     4    2
    28    20    15   ar
@<TRIPOS>MOLECULE
*****
 25 28 0 0 0
SMALL
GASTEIGER

@<TRIPOS>ATOM
      1 C          62.6118   82.1841   13.4166 C.ar    1  UNL1       -0.0209
      2 C          63.1254   83.0918   12.3385 C.ar    1  UNL1       -0.0041
      3 C          63.4528   84.5211   12.6544 C.ar    1  UNL1        0.0048
      4 C          63.2666   85.0428   14.0484 C.ar    1  UNL1        0.0623
      5 C          62.7530   84.1351   15.1264 C.ar    1  UNL1        0.0771
      6 C          62.4256   82.7058   14.8105 C.ar    1  UNL1        0.0125
      7 N          62.5667   84.6568   16.5205 N.am    1  UNL1       -0.1721
      8 C          62.8941   86.0861   16.8363 C.2     1  UNL1        0.3160
      9 O          62.7079   86.6078   18.2303 O.2     1  UNL1       -0.2638
     10 C          63.4078   86.9938   15.7582 C.2     1  UNL1        0.2907
     11 N          63.8120   88.4382   15.7705 N.2     1  UNL1       -0.0256
     12 C          64.2481   88.8093   14.3841 C.2     1  UNL1        0.3765
     13 N          64.1134   87.5942   13.5150 N.2     1  UNL1       -0.0302
     14 C          63.5940   86.4721   14.3643 C.2     1  UNL1        0.2419
     15 C          64.7337   90.1586   13.9440 C.ar    1  UNL1        0.0989
     16 C          65.8053   90.8611   14.7239 C.ar    1  UNL1        0.0085
     17 C          66.2909   92.2103   14.2838 C.ar    1  UNL1        0.0003
     18 C          65.7048   92.8571   13.0639 C.ar    1  UNL1        0.0009
     19 C          64.6332   92.1547   12.2841 C.ar    1  UNL1        0.0116
     20 C          64.1477   90.8055   12.7241 C.ar    1  UNL1        0.0651
     21 CL         63.0760   90.1029   11.9443 Cl      1  UNL1       -0.0820
     22 C          62.2844   80.7548   13.1007 C.3     1  UNL1        0.0264
     23 C          61.2962   80.0072   13.9460 C.3     1  UNL1        0.0047
     24 C          58.7884   79.6303   14.5107 C.3     1  UNL1        0.0000
     25 C          59.9125   80.5524   14.1413 C.3     1  UNL1        0.0003
@<TRIPOS>BOND
     1    24    25    1
     2    25    23    1
     3    23    22    1
     4    22     1    1
     5     1     2   ar
     6     2     3   ar
     7     3     4   ar
     8     4     5   ar
     9     5     6   ar
    10     5     7    2
    11     7     8    1
    12     8     9    2
    13     8    10    1
    14    10    11    2
    15    11    12    1
    16    12    15    1
    17    15    16   ar
    18    16    17   ar
    19    17    18   ar
    20    18    19   ar
    21    19    20   ar
    22    20    21    1
    23    12    13    2
    24    13    14    1
    25     6     1   ar
    26    14    10    1
    27    14     4    2
    28    20    15   ar
@<TRIPOS>MOLECULE
*****
 25 28 0 0 0
SMALL
GASTEIGER

@<TRIPOS>ATOM
      1 C          66.1217   92.7898   13.9276 C.ar    1  UNL1       -0.0209
      2 C          65.4969   93.0403   12.5872 C.ar    1  UNL1       -0.0041
      3 C          64.6275   91.9926   11.9574 C.ar    1  UNL1        0.0048
      4 C          64.3830   90.6945   12.6681 C.ar    1  UNL1        0.0623
      5 C          65.0078   90.4441   14.0085 C.ar    1  UNL1        0.0771
      6 C          65.8772   91.4917   14.6383 C.ar    1  UNL1        0.0125
      7 N          64.7633   89.1459   14.7193 N.am    1  UNL1       -0.1721
      8 C          63.8940   88.0982   14.0895 C.2     1  UNL1        0.3160
      9 O          63.6495   86.8001   14.8002 O.2     1  UNL1       -0.2638
     10 C          63.2692   88.3487   12.7490 C.2     1  UNL1        0.2907
     11 N          62.3732   87.5098   11.8868 N.2     1  UNL1       -0.0256
     12 C          62.0640   88.2894   10.6432 C.2     1  UNL1        0.3765
     13 N          62.7688   89.6102   10.7368 N.2     1  UNL1       -0.0302
     14 C          63.5137   89.6468   12.0383 C.2     1  UNL1        0.2419
     15 C          61.2013   87.8291    9.5056 C.ar    1  UNL1        0.0989
     16 C          60.1383   88.7338    8.9567 C.ar    1  UNL1        0.0085
     17 C          59.2757   88.2735    7.8192 C.ar    1  UNL1        0.0003
     18 C          59.4761   86.9084    7.2307 C.ar    1  UNL1        0.0009
     19 C          60.5391   86.0036    7.7796 C.ar    1  UNL1        0.0116
     20 C          61.4017   86.4640    8.9171 C.ar    1  UNL1        0.0651
     21 CL         62.4648   85.5592    9.4661 Cl      1  UNL1       -0.0820
     22 C          66.9910   93.8375   14.5574 C.3     1  UNL1        0.0264
     23 C          67.7624   93.5216   15.8045 C.3     1  UNL1        0.0047
     24 C          69.5648   92.2900   14.3957 C.3     1  UNL1        0.0000
     25 C          69.0963   92.8423   15.7094 C.3     1  UNL1        0.0003
@<TRIPOS>BOND
     1    24    25    1
     2    25    23    1
     3    23    22    1
     4    22     1    1
     5     1     2   ar
     6     2     3   ar
     7     3     4   ar
     8     4     5   ar
     9     5     6   ar
    10     5     7    2
    11     7     8    1
    12     8     9    2
    13     8    10    1
    14    10    11    2
    15    11    12    1
    16    12    15    1
    17    15    16   ar
    18    16    17   ar
    19    17    18   ar
    20    18    19   ar
    21    19    20   ar
    22    20    21    1
    23    12    13    2
    24    13    14    1
    25     6     1   ar
    26    14    10    1
    27    14     4    2
    28    20    15   ar
@<TRIPOS>MOLECULE
*****
 25 28 0 0 0
SMALL
GASTEIGER

@<TRIPOS>ATOM
      1 C          60.6494   86.9209    9.2576 C.ar    1  UNL1       -0.0209
      2 C          61.0309   88.3708    9.3036 C.ar    1  UNL1       -0.0041
      3 C          61.9224   88.8774   10.3984 C.ar    1  UNL1        0.0048
      4 C          62.4324   87.9341   11.4472 C.ar    1  UNL1        0.0623
      5 C          62.0509   86.4842   11.4011 C.ar    1  UNL1        0.0771
      6 C          61.1594   85.9776   10.3063 C.ar    1  UNL1        0.0125
      7 N          62.5610   85.5408   12.4499 N.am    1  UNL1       -0.1721
      8 C          63.4525   86.0474   13.5447 C.2     1  UNL1        0.3160
      9 O          63.9625   85.1040   14.5935 O.2     1  UNL1       -0.2638
     10 C          63.8340   87.4974   13.5908 C.2     1  UNL1        0.2907
     11 N          64.6905   88.2801   14.5413 N.2     1  UNL1       -0.0256
     12 C          64.7099   89.7073   14.0799 C.2     1  UNL1        0.3765
     13 N          63.8653   89.8065   12.8443 N.2     1  UNL1       -0.0302
     14 C          63.3239   88.4407   12.5420 C.2     1  UNL1        0.2419
     15 C          65.4449   90.8369   14.7386 C.ar    1  UNL1        0.0989
     16 C          66.7700   91.2860   14.1980 C.ar    1  UNL1        0.0085
     17 C          67.5049   92.4155   14.8567 C.ar    1  UNL1        0.0003
     18 C          66.9147   93.0961   16.0560 C.ar    1  UNL1        0.0009
     19 C          65.5895   92.6471   16.5967 C.ar    1  UNL1        0.0116
     20 C          64.8546   91.5175   15.9380 C.ar    1  UNL1        0.0651
     21 CL         63.5294   91.0684   16.4787 Cl      1  UNL1       -0.0820
     22 C          59.7579   86.4143    8.1628 C.3     1  UNL1        0.0264
     23 C          60.3206   85.5404    7.0814 C.3     1  UNL1        0.0047
     24 C          62.3486   84.3408    5.9865 C.3     1  UNL1        0.0000
     25 C          61.7740   85.1695    7.0970 C.3     1  UNL1        0.0003
@<TRIPOS>BOND
     1    24    25    1
     2    25    23    1
     3    23    22    1
     4    22     1    1
     5     1     2   ar
     6     2     3   ar
     7     3     4   ar
     8     4     5   ar
     9     5     6   ar
    10     5     7    2
    11     7     8    1
    12     8     9    2
    13     8    10    1
    14    10    11    2
    15    11    12    1
    16    12    15    1
    17    15    16   ar
    18    16    17   ar
    19    17    18   ar
    20    18    19   ar
    21    19    20   ar
    22    20    21    1
    23    12    13    2
    24    13    14    1
    25     6     1   ar
    26    14    10    1
    27    14     4    2
    28    20    15   ar
@<TRIPOS>MOLECULE
*****
 25 28 0 0 0
SMALL
GASTEIGER

@<TRIPOS>ATOM
      1 C          60.2947   88.1352    8.8419 C.ar    1  UNL1       -0.0209
      2 C          60.7856   89.5402    9.0280 C.ar    1  UNL1       -0.0041
      3 C          61.7372   89.8608   10.1423 C.ar    1  UNL1        0.0048
      4 C          62.1979   88.7763   11.0705 C.ar    1  UNL1        0.0623
      5 C          61.7070   87.3712   10.8844 C.ar    1  UNL1        0.0771
      6 C          60.7554   87.0506    9.7700 C.ar    1  UNL1        0.0125
      7 N          62.1676   86.2866   11.8126 N.am    1  UNL1       -0.1721
      8 C          63.1192   86.6072   12.9269 C.2     1  UNL1        0.3160
      9 O          63.5799   85.5227   13.8550 O.2     1  UNL1       -0.2638
     10 C          63.6102   88.0124   13.1130 C.2     1  UNL1        0.2907
     11 N          64.5446   88.6247   14.1139 N.2     1  UNL1       -0.0256
     12 C          64.6614   90.0878   13.8043 C.2     1  UNL1        0.3765
     13 N          63.7992   90.3796   12.6120 N.2     1  UNL1       -0.0302
     14 C          63.1495   89.0969   12.1848 C.2     1  UNL1        0.2419
     15 C          65.4943   91.0841   14.5551 C.ar    1  UNL1        0.0989
     16 C          66.8214   91.5174   14.0064 C.ar    1  UNL1        0.0085
     17 C          67.6542   92.5137   14.7573 C.ar    1  UNL1        0.0003
     18 C          67.1599   93.0767   16.0568 C.ar    1  UNL1        0.0009
     19 C          65.8328   92.6434   16.6055 C.ar    1  UNL1        0.0116
     20 C          65.0001   91.6471   15.8546 C.ar    1  UNL1        0.0651
     21 CL         63.6729   91.2137   16.4033 Cl      1  UNL1       -0.0820
     22 C          59.3431   87.8146    7.7276 C.3     1  UNL1        0.0264
     23 C          58.6286   88.9210    7.0098 C.3     1  UNL1        0.0047
     24 C          58.6968   90.9692    5.4128 C.3     1  UNL1        0.0000
     25 C          59.3668   89.7720    6.0194 C.3     1  UNL1        0.0003
@<TRIPOS>BOND
     1    24    25    1
     2    25    23    1
     3    23    22    1
     4    22     1    1
     5     1     2   ar
     6     2     3   ar
     7     3     4   ar
     8     4     5   ar
     9     5     6   ar
    10     5     7    2
    11     7     8    1
    12     8     9    2
    13     8    10    1
    14    10    11    2
    15    11    12    1
    16    12    15    1
    17    15    16   ar
    18    16    17   ar
    19    17    18   ar
    20    18    19   ar
    21    19    20   ar
    22    20    21    1
    23    12    13    2
    24    13    14    1
    25     6     1   ar
    26    14    10    1
    27    14     4    2
    28    20    15   ar
@<TRIPOS>MOLECULE
*****
 25 28 0 0 0
SMALL
GASTEIGER

@<TRIPOS>ATOM
      1 C          62.7964   83.2678   11.9479 C.ar    1  UNL1       -0.0209
      2 C          63.5731   83.6677   13.1672 C.ar    1  UNL1       -0.0041
      3 C          63.7934   85.1195   13.4734 C.ar    1  UNL1        0.0048
      4 C          63.2370   86.1714   12.5602 C.ar    1  UNL1        0.0623
      5 C          62.4603   85.7715   11.3409 C.ar    1  UNL1        0.0771
      6 C          62.2400   84.3197   11.0348 C.ar    1  UNL1        0.0125
      7 N          61.9039   86.8234   10.4277 N.am    1  UNL1       -0.1721
      8 C          62.1242   88.2752   10.7338 C.2     1  UNL1        0.3160
      9 O          61.5678   89.3271    9.8207 O.2     1  UNL1       -0.2638
     10 C          62.9009   88.6751   11.9532 C.2     1  UNL1        0.2907
     11 N          63.2764   90.0169   12.5086 N.2     1  UNL1       -0.0256
     12 C          64.0649   89.7943   13.7651 C.2     1  UNL1        0.3765
     13 N          64.1767   88.3149   13.9862 N.2     1  UNL1       -0.0302
     14 C          63.4573   87.6232   12.8664 C.2     1  UNL1        0.2419
     15 C          64.6405   90.8634   14.6459 C.ar    1  UNL1        0.0989
     16 C          64.0785   91.0876   16.0184 C.ar    1  UNL1        0.0085
     17 C          64.6541   92.1567   16.8991 C.ar    1  UNL1        0.0003
     18 C          65.7918   93.0016   16.4072 C.ar    1  UNL1        0.0009
     19 C          66.3538   92.7774   15.0347 C.ar    1  UNL1        0.0116
     20 C          65.7781   91.7083   14.1541 C.ar    1  UNL1        0.0651
     21 CL         66.3402   91.4841   12.7815 Cl      1  UNL1       -0.0820
     22 C          62.5761   81.8160   11.6418 C.3     1  UNL1        0.0264
     23 C          63.0735   80.7656   12.5901 C.3     1  UNL1        0.0047
     24 C          60.9518   80.9539   14.0778 C.3     1  UNL1        0.0000
     25 C          62.1447   80.1745   13.6088 C.3     1  UNL1        0.0003
@<TRIPOS>BOND
     1    24    25    1
     2    25    23    1
     3    23    22    1
     4    22     1    1
     5     1     2   ar
     6     2     3   ar
     7     3     4   ar
     8     4     5   ar
     9     5     6   ar
    10     5     7    2
    11     7     8    1
    12     8     9    2
    13     8    10    1
    14    10    11    2
    15    11    12    1
    16    12    15    1
    17    15    16   ar
    18    16    17   ar
    19    17    18   ar
    20    18    19   ar
    21    19    20   ar
    22    20    21    1
    23    12    13    2
    24    13    14    1
    25     6     1   ar
    26    14    10    1
    27    14     4    2
    28    20    15   ar
@<TRIPOS>MOLECULE
*****
 25 28 0 0 0
SMALL
GASTEIGER

@<TRIPOS>ATOM
      1 C          63.1767   82.2302   13.3651 C.ar    1  UNL1       -0.0209
      2 C          63.9222   82.8958   14.4837 C.ar    1  UNL1       -0.0041
      3 C          64.0721   84.3881   14.5015 C.ar    1  UNL1        0.0048
      4 C          63.4765   85.2149   13.4008 C.ar    1  UNL1        0.0623
      5 C          62.7310   84.5493   12.2823 C.ar    1  UNL1        0.0771
      6 C          62.5811   83.0569   12.2644 C.ar    1  UNL1        0.0125
      7 N          62.1353   85.3761   11.1815 N.am    1  UNL1       -0.1721
      8 C          62.2852   86.8685   11.1993 C.2     1  UNL1        0.3160
      9 O          61.6895   87.6953   10.0986 O.2     1  UNL1       -0.2638
     10 C          63.0307   87.5341   12.3179 C.2     1  UNL1        0.2907
     11 N          63.3383   88.9745   12.6017 N.2     1  UNL1       -0.0256
     12 C          64.1240   89.0380   13.8778 C.2     1  UNL1        0.3765
     13 N          64.3021   87.6368   14.3827 N.2     1  UNL1       -0.0302
     14 C          63.6264   86.7073   13.4186 C.2     1  UNL1        0.2419
     15 C          64.6410   90.2839   14.5339 C.ar    1  UNL1        0.0989
     16 C          65.6979   91.1050   13.8566 C.ar    1  UNL1        0.0085
     17 C          66.2148   92.3509   14.5127 C.ar    1  UNL1        0.0003
     18 C          65.6748   92.7757   15.8461 C.ar    1  UNL1        0.0009
     19 C          64.6179   91.9547   16.5234 C.ar    1  UNL1        0.0116
     20 C          64.1010   90.7088   15.8673 C.ar    1  UNL1        0.0651
     21 CL         63.0440   89.8877   16.5446 Cl      1  UNL1       -0.0820
     22 C          63.0268   80.7378   13.3473 C.3     1  UNL1        0.0264
     23 C          62.4478   80.0565   12.1430 C.3     1  UNL1        0.0047
     24 C          62.7402   79.2941    9.6765 C.3     1  UNL1        0.0000
     25 C          63.1050   80.2140   10.8038 C.3     1  UNL1        0.0003
@<TRIPOS>BOND
     1    24    25    1
     2    25    23    1
     3    23    22    1
     4    22     1    1
     5     1     2   ar
     6     2     3   ar
     7     3     4   ar
     8     4     5   ar
     9     5     6   ar
    10     5     7    2
    11     7     8    1
    12     8     9    2
    13     8    10    1
    14    10    11    2
    15    11    12    1
    16    12    15    1
    17    15    16   ar
    18    16    17   ar
    19    17    18   ar
    20    18    19   ar
    21    19    20   ar
    22    20    21    1
    23    12    13    2
    24    13    14    1
    25     6     1   ar
    26    14    10    1
    27    14     4    2
    28    20    15   ar
@<TRIPOS>MOLECULE
*****
 25 28 0 0 0
SMALL
GASTEIGER

@<TRIPOS>ATOM
      1 C          63.2226   82.2491   13.2171 C.ar    1  UNL1       -0.0209
      2 C          64.1109   83.0055   14.1597 C.ar    1  UNL1       -0.0041
      3 C          64.2020   84.5000   14.0680 C.ar    1  UNL1        0.0048
      4 C          63.4048   85.2379   13.0337 C.ar    1  UNL1        0.0623
      5 C          62.5165   84.4814   12.0911 C.ar    1  UNL1        0.0771
      6 C          62.4254   82.9870   12.1828 C.ar    1  UNL1        0.0125
      7 N          61.7192   85.2194   11.0567 N.am    1  UNL1       -0.1721
      8 C          61.8103   86.7138   10.9651 C.2     1  UNL1        0.3160
      9 O          61.0131   87.4518    9.9308 O.2     1  UNL1       -0.2638
     10 C          62.6987   87.4703   11.9078 C.2     1  UNL1        0.2907
     11 N          62.9901   88.9343   12.0554 N.2     1  UNL1       -0.0256
     12 C          63.9674   89.1011   13.1810 C.2     1  UNL1        0.3765
     13 N          64.2800   87.7403   13.7290 N.2     1  UNL1       -0.0302
     14 C          63.4959   86.7323   12.9421 C.2     1  UNL1        0.2419
     15 C          64.5329   90.4007   13.6723 C.ar    1  UNL1        0.0989
     16 C          64.8738   90.5695   15.1233 C.ar    1  UNL1        0.0085
     17 C          65.4392   91.8691   15.6145 C.ar    1  UNL1        0.0003
     18 C          65.6638   92.9998   14.6548 C.ar    1  UNL1        0.0009
     19 C          65.3229   92.8310   13.2039 C.ar    1  UNL1        0.0116
     20 C          64.7575   91.5315   12.7126 C.ar    1  UNL1        0.0651
     21 CL         64.4166   91.3626   11.2616 Cl      1  UNL1       -0.0820
     22 C          63.1316   80.7546   13.3087 C.3     1  UNL1        0.0264
     23 C          61.7966   80.0941   13.4861 C.3     1  UNL1        0.0047
     24 C          59.3232   80.2051   14.2737 C.3     1  UNL1        0.0000
     25 C          60.6908   80.8167   14.1969 C.3     1  UNL1        0.0003
@<TRIPOS>BOND
     1    24    25    1
     2    25    23    1
     3    23    22    1
     4    22     1    1
     5     1     2   ar
     6     2     3   ar
     7     3     4   ar
     8     4     5   ar
     9     5     6   ar
    10     5     7    2
    11     7     8    1
    12     8     9    2
    13     8    10    1
    14    10    11    2
    15    11    12    1
    16    12    15    1
    17    15    16   ar
    18    16    17   ar
    19    17    18   ar
    20    18    19   ar
    21    19    20   ar
    22    20    21    1
    23    12    13    2
    24    13    14    1
    25     6     1   ar
    26    14    10    1
    27    14     4    2
    28    20    15   ar
