@<TRIPOS>MOLECULE
*****
 40 44 0 0 0
SMALL
GASTEIGER

@<TRIPOS>ATOM
      1 N          63.9197   89.1144   15.4744 N.ar    1  UNL1       -0.2715
      2 C          63.3811   89.5634   16.8004 C.ar    1  UNL1        0.2649
      3 O          63.3921   91.0196   17.1602 O.2     1  UNL1       -0.2666
      4 C          62.8314   88.5562   17.7666 C.ar    1  UNL1        0.0611
      5 C          62.8205   87.1001   17.4068 C.ar    1  UNL1        0.0064
      6 C          63.3591   86.6510   16.0807 C.ar    1  UNL1        0.0177
      7 C          63.3481   85.1949   15.7209 C.ar    1  UNL1        0.0216
      8 C          63.8868   84.7459   14.3950 C.ar    1  UNL1        0.1253
      9 C          64.4364   85.7531   13.4288 C.ar    1  UNL1        0.0217
     10 C          64.4474   87.2093   13.7886 C.ar    1  UNL1        0.0190
     11 C          63.9088   87.6582   15.1146 C.ar    1  UNL1        0.0670
     12 C          63.6582   90.5390   13.3176 C.ar    1  UNL1        0.1549
     13 C          64.2079   91.5462   12.3514 C.ar    1  UNL1        0.0406
     14 C          65.5686   92.1359   12.5759 C.ar    1  UNL1        0.0307
     15 C          66.3799   91.7185   13.7666 C.ar    1  UNL1        0.1417
     16 F          67.7406   92.3082   13.9911 F       1  UNL1       -0.2041
     17 C          65.8302   90.7113   14.7328 C.ar    1  UNL1        0.0503
     18 C          64.4694   90.1216   14.5082 C.ar    1  UNL1        0.1029
     19 C          66.1183   93.1431   11.6097 C.ar    1  UNL1        0.0053
     20 C          65.8658   94.6058   11.8264 C.ar    1  UNL1        0.0003
     21 C          66.4154   95.6130   10.8602 C.ar    1  UNL1        0.0031
     22 C          67.2175   95.1575    9.6773 C.ar    1  UNL1        0.0371
     23 C          67.4700   93.6949    9.4607 C.ar    1  UNL1        0.1443
     24 C          66.9203   92.6877   10.4268 C.ar    1  UNL1        0.0372
     25 O          68.2721   93.2394    8.2777 O.3     1  UNL1       -0.4236
     26 C          68.8318   91.8482    8.2420 C.3     1  UNL1        0.5087
     27 F          70.1932   91.6021    7.6623 F       1  UNL1       -0.1550
     28 F          68.0300   90.7029    8.7858 F       1  UNL1       -0.1550
     29 C          61.8310   89.6484   11.6995 C.3     1  UNL1        0.2525
     30 O          62.2974   89.9493   13.0930 O.3     1  UNL1       -0.4700
     31 S          63.8758   83.2897   14.0351 S.O2    1  UNL1        0.0748
     32 O          64.0463   82.9311   15.4816 O.2     1  UNL1       -0.1499
     33 O          63.7053   83.6484   12.5887 O.2     1  UNL1       -0.1499
     34 N          63.8649   81.8336   13.6753 N.pl3   1  UNL1       -0.1962
     35 H          64.6957   81.3918   13.3857 H       1  UNL1        0.1754
     36 C          62.5881   81.0505   13.7568 C.ar    1  UNL1        0.1893
     37 C          61.2639   81.5702   14.2328 C.ar    1  UNL1        0.0823
     38 C          60.2687   80.4511   14.1468 C.ar    1  UNL1        0.2152
     39 O          60.9779   79.2398   13.6176 O.2     1  UNL1       -0.3489
     40 N          62.4113   79.6103   13.3766 N.ar    1  UNL1       -0.0605
@<TRIPOS>BOND
     1    29    30    1
     2    30    12    1
     3    12    13   ar
     4    13    14   ar
     5    14    19    1
     6    19    20   ar
     7    20    21   ar
     8    21    22   ar
     9    22    23   ar
    10    23    25    1
    11    25    26    1
    12    26    27    1
    13    26    28    1
    14    23    24   ar
    15    14    15   ar
    16    15    16    1
    17    15    17   ar
    18    17    18   ar
    19    18     1    1
    20     1     2   ar
    21     2     3    2
    22     2     4   ar
    23     4     5   ar
    24     5     6   ar
    25     6     7   ar
    26     7     8   ar
    27     8    31    1
    28    31    32    2
    29    31    33    2
    30    31    34    1
    31    34    36    1
    32    36    37   ar
    33    37    38   ar
    34    38    39   ar
    35    39    40   ar
    36     8     9   ar
    37     9    10   ar
    38    10    11   ar
    39    18    12   ar
    40    11     1   ar
    41    24    19   ar
    42    11     6   ar
    43    40    36   ar
    44    34    35    1
@<TRIPOS>MOLECULE
*****
 40 44 0 0 0
SMALL
GASTEIGER

@<TRIPOS>ATOM
      1 N          62.2414   87.8660   10.9849 N.ar    1  UNL1       -0.2715
      2 C          61.4153   88.2600    9.7965 C.ar    1  UNL1        0.2649
      3 O          60.6867   87.2117    9.0089 O.2     1  UNL1       -0.2666
      4 C          61.3179   89.7021    9.3957 C.ar    1  UNL1        0.0611
      5 C          62.0465   90.7504   10.1833 C.ar    1  UNL1        0.0064
      6 C          62.8726   90.3565   11.3717 C.ar    1  UNL1        0.0177
      7 C          63.6013   91.4047   12.1593 C.ar    1  UNL1        0.0216
      8 C          64.4274   91.0107   13.3477 C.ar    1  UNL1        0.1253
      9 C          64.5248   89.5686   13.7485 C.ar    1  UNL1        0.0217
     10 C          63.7962   88.5203   12.9610 C.ar    1  UNL1        0.0190
     11 C          62.9701   88.9143   11.7726 C.ar    1  UNL1        0.0670
     12 C          62.7645   85.3936   10.3821 C.ar    1  UNL1        0.1549
     13 C          62.8620   83.9515   10.7829 C.ar    1  UNL1        0.0406
     14 C          62.5339   83.5396   12.1874 C.ar    1  UNL1        0.0307
     15 C          62.1082   84.5698   13.1912 C.ar    1  UNL1        0.1417
     16 F          61.7801   84.1580   14.5957 F       1  UNL1       -0.2041
     17 C          62.0108   86.0120   12.7903 C.ar    1  UNL1        0.0503
     18 C          62.3389   86.4239   11.3858 C.ar    1  UNL1        0.1029
     19 C          62.6314   82.0974   12.5883 C.ar    1  UNL1        0.0053
     20 C          62.7337   81.7273   14.0383 C.ar    1  UNL1        0.0003
     21 C          62.8312   80.2851   14.4392 C.ar    1  UNL1        0.0031
     22 C          62.8263   79.2131   13.3899 C.ar    1  UNL1        0.0371
     23 C          62.7240   79.5832   11.9400 C.ar    1  UNL1        0.1443
     24 C          62.6265   81.0254   11.5391 C.ar    1  UNL1        0.0372
     25 O          62.7191   78.5112   10.8907 O.3     1  UNL1       -0.4236
     26 C          62.8705   78.8771    9.4440 C.3     1  UNL1        0.5087
     27 F          61.7889   79.6493    8.7484 F       1  UNL1       -0.1550
     28 F          64.1037   78.4708    8.6927 F       1  UNL1       -0.1550
     29 C          62.8063   84.8747    7.8367 C.3     1  UNL1        0.2525
     30 O          63.0927   85.8055    8.9775 O.3     1  UNL1       -0.4700
     31 S          65.1560   92.0590   14.1353 S.O2    1  UNL1        0.0748
     32 O          65.3088   92.8859   12.8933 O.2     1  UNL1       -0.1499
     33 O          65.0032   91.2320   15.3774 O.2     1  UNL1       -0.1499
     34 N          65.8847   93.1072   14.9229 N.pl3   1  UNL1       -0.1962
     35 H          65.3786   93.7900   15.4198 H       1  UNL1        0.1754
     36 C          67.3844   93.1151   14.9533 C.ar    1  UNL1        0.1893
     37 C          68.2415   93.7611   16.0013 C.ar    1  UNL1        0.0823
     38 C          69.6771   93.5236   15.6369 C.ar    1  UNL1        0.2152
     39 O          69.7072   92.7309   14.3638 O.2     1  UNL1       -0.3489
     40 N          68.2902   92.4784   13.9414 N.ar    1  UNL1       -0.0605
@<TRIPOS>BOND
     1    29    30    1
     2    30    12    1
     3    12    13   ar
     4    13    14   ar
     5    14    19    1
     6    19    20   ar
     7    20    21   ar
     8    21    22   ar
     9    22    23   ar
    10    23    25    1
    11    25    26    1
    12    26    27    1
    13    26    28    1
    14    23    24   ar
    15    14    15   ar
    16    15    16    1
    17    15    17   ar
    18    17    18   ar
    19    18     1    1
    20     1     2   ar
    21     2     3    2
    22     2     4   ar
    23     4     5   ar
    24     5     6   ar
    25     6     7   ar
    26     7     8   ar
    27     8    31    1
    28    31    32    2
    29    31    33    2
    30    31    34    1
    31    34    36    1
    32    36    37   ar
    33    37    38   ar
    34    38    39   ar
    35    39    40   ar
    36     8     9   ar
    37     9    10   ar
    38    10    11   ar
    39    18    12   ar
    40    11     1   ar
    41    24    19   ar
    42    11     6   ar
    43    40    36   ar
    44    34    35    1
@<TRIPOS>MOLECULE
*****
 40 44 0 0 0
SMALL
GASTEIGER

@<TRIPOS>ATOM
      1 N          63.9969   89.3908   14.8232 N.ar    1  UNL1       -0.2715
      2 C          63.5137   89.5590   16.2332 C.ar    1  UNL1        0.2649
      3 O          62.9134   88.3948   16.9643 O.2     1  UNL1       -0.2666
      4 C          63.6307   90.8914   16.9123 C.ar    1  UNL1        0.0611
      5 C          64.2309   92.0556   16.1813 C.ar    1  UNL1        0.0064
      6 C          64.7141   91.8874   14.7712 C.ar    1  UNL1        0.0177
      7 C          65.3143   93.0516   14.0402 C.ar    1  UNL1        0.0216
      8 C          65.7975   92.8834   12.6302 C.ar    1  UNL1        0.1253
      9 C          65.6805   91.5510   11.9512 C.ar    1  UNL1        0.0217
     10 C          65.0803   90.3868   12.6822 C.ar    1  UNL1        0.0190
     11 C          64.5971   90.5550   14.0922 C.ar    1  UNL1        0.0670
     12 C          63.0236   87.9124   12.9214 C.ar    1  UNL1        0.1549
     13 C          62.9066   86.5800   12.2424 C.ar    1  UNL1        0.0406
     14 C          63.6460   85.3936   12.7862 C.ar    1  UNL1        0.0307
     15 C          64.5024   85.5396   14.0090 C.ar    1  UNL1        0.1417
     16 F          65.2418   84.3532   14.5528 F       1  UNL1       -0.2041
     17 C          64.6194   86.8720   14.6881 C.ar    1  UNL1        0.0503
     18 C          63.8799   88.0584   14.1442 C.ar    1  UNL1        0.1029
     19 C          63.5290   84.0613   12.1072 C.ar    1  UNL1        0.0053
     20 C          64.1004   83.8666   10.7339 C.ar    1  UNL1        0.0003
     21 C          63.9834   82.5342   10.0549 C.ar    1  UNL1        0.0031
     22 C          63.2950   81.3965   10.7491 C.ar    1  UNL1        0.0371
     23 C          62.7237   81.5912   12.1223 C.ar    1  UNL1        0.1443
     24 C          62.8406   82.9236   12.8013 C.ar    1  UNL1        0.0372
     25 O          62.0353   80.4535   12.8165 O.3     1  UNL1       -0.4236
     26 C          61.1069   80.7258   13.9627 C.3     1  UNL1        0.5087
     27 F          59.8856   79.8769   14.1567 F       1  UNL1       -0.1550
     28 F          61.3998   81.8472   14.9150 F       1  UNL1       -0.1550
     29 C          62.0163   89.2054   10.9056 C.3     1  UNL1        0.2525
     30 O          62.2841   89.0988   12.3776 O.3     1  UNL1       -0.4700
     31 S          66.3978   94.0476   11.8991 S.O2    1  UNL1        0.0748
     32 O          66.4518   94.8246   13.1810 O.2     1  UNL1       -0.1499
     33 O          66.3437   93.2706   10.6172 O.2     1  UNL1       -0.1499
     34 N          66.9980   95.2118   11.1681 N.pl3   1  UNL1       -0.1962
     35 H          67.8737   95.5675   11.4435 H       1  UNL1        0.1754
     36 C          66.2639   95.8341   10.0175 C.ar    1  UNL1        0.1893
     37 C          66.8256   96.0961    8.6515 C.ar    1  UNL1        0.0823
     38 C          65.7481   96.7277    7.8206 C.ar    1  UNL1        0.2152
     39 O          64.5206   96.8559    8.6731 O.2     1  UNL1       -0.3489
     40 N          64.8393   96.3037   10.0308 N.ar    1  UNL1       -0.0605
@<TRIPOS>BOND
     1    29    30    1
     2    30    12    1
     3    12    13   ar
     4    13    14   ar
     5    14    19    1
     6    19    20   ar
     7    20    21   ar
     8    21    22   ar
     9    22    23   ar
    10    23    25    1
    11    25    26    1
    12    26    27    1
    13    26    28    1
    14    23    24   ar
    15    14    15   ar
    16    15    16    1
    17    15    17   ar
    18    17    18   ar
    19    18     1    1
    20     1     2   ar
    21     2     3    2
    22     2     4   ar
    23     4     5   ar
    24     5     6   ar
    25     6     7   ar
    26     7     8   ar
    27     8    31    1
    28    31    32    2
    29    31    33    2
    30    31    34    1
    31    34    36    1
    32    36    37   ar
    33    37    38   ar
    34    38    39   ar
    35    39    40   ar
    36     8     9   ar
    37     9    10   ar
    38    10    11   ar
    39    18    12   ar
    40    11     1   ar
    41    24    19   ar
    42    11     6   ar
    43    40    36   ar
    44    34    35    1
@<TRIPOS>MOLECULE
*****
 40 44 0 0 0
SMALL
GASTEIGER

@<TRIPOS>ATOM
      1 N          62.3447   88.2280   10.9716 N.ar    1  UNL1       -0.2715
      2 C          61.5904   88.7178    9.7712 C.ar    1  UNL1        0.2649
      3 O          60.8399   87.7463    8.9092 O.2     1  UNL1       -0.2666
      4 C          61.5864   90.1792    9.4328 C.ar    1  UNL1        0.0611
      5 C          62.3368   91.1507   10.2948 C.ar    1  UNL1        0.0064
      6 C          63.0912   90.6609   11.4952 C.ar    1  UNL1        0.0177
      7 C          63.8416   91.6324   12.3572 C.ar    1  UNL1        0.0216
      8 C          64.5960   91.1426   13.5575 C.ar    1  UNL1        0.1253
      9 C          64.6000   89.6812   13.8960 C.ar    1  UNL1        0.0217
     10 C          63.8496   88.7097   13.0340 C.ar    1  UNL1        0.0190
     11 C          63.0952   89.1996   11.8336 C.ar    1  UNL1        0.0670
     12 C          62.5113   85.7456   10.2233 C.ar    1  UNL1        0.1549
     13 C          62.5153   84.2843   10.5617 C.ar    1  UNL1        0.0406
     14 C          62.3567   83.8441   11.9868 C.ar    1  UNL1        0.0307
     15 C          62.1941   84.8651   13.0736 C.ar    1  UNL1        0.1417
     16 F          62.0354   84.4249   14.4987 F       1  UNL1       -0.2041
     17 C          62.1901   86.3265   12.7352 C.ar    1  UNL1        0.0503
     18 C          62.3487   86.7667   11.3100 C.ar    1  UNL1        0.1029
     19 C          62.3607   82.3827   12.3252 C.ar    1  UNL1        0.0053
     20 C          63.2951   81.4504   11.6126 C.ar    1  UNL1        0.0003
     21 C          63.2991   79.9891   11.9510 C.ar    1  UNL1        0.0031
     22 C          62.3686   79.4601   13.0020 C.ar    1  UNL1        0.0371
     23 C          61.4343   80.3924   13.7145 C.ar    1  UNL1        0.1443
     24 C          61.4303   81.8537   13.3761 C.ar    1  UNL1        0.0372
     25 O          60.5038   79.8634   14.7655 O.3     1  UNL1       -0.4236
     26 C          59.0772   79.5566   14.4184 C.3     1  UNL1        0.5087
     27 F          58.5908   78.1377   14.4307 F       1  UNL1       -0.1550
     28 F          58.1368   80.6687   14.0591 F       1  UNL1       -0.1550
     29 C          62.9101   85.1695    7.7215 C.3     1  UNL1        0.2525
     30 O          62.6700   86.1859    8.7981 O.3     1  UNL1       -0.4700
     31 S          65.3465   92.1141   14.4196 S.O2    1  UNL1        0.0748
     32 O          65.5579   93.0049   13.2315 O.2     1  UNL1       -0.1499
     33 O          65.1350   91.2233   15.6077 O.2     1  UNL1       -0.1499
     34 N          66.0969   93.0856   15.2815 N.pl3   1  UNL1       -0.1962
     35 H          65.6076   93.6738   15.9011 H       1  UNL1        0.1754
     36 C          67.5928   93.1609   15.1996 C.ar    1  UNL1        0.1893
     37 C          68.4876   93.9436   16.1143 C.ar    1  UNL1        0.0823
     38 C          69.9043   93.7331   15.6686 C.ar    1  UNL1        0.2152
     39 O          69.8850   92.8203   14.4784 O.2     1  UNL1       -0.3489
     40 N          68.4564   92.4667   14.1885 N.ar    1  UNL1       -0.0605
@<TRIPOS>BOND
     1    29    30    1
     2    30    12    1
     3    12    13   ar
     4    13    14   ar
     5    14    19    1
     6    19    20   ar
     7    20    21   ar
     8    21    22   ar
     9    22    23   ar
    10    23    25    1
    11    25    26    1
    12    26    27    1
    13    26    28    1
    14    23    24   ar
    15    14    15   ar
    16    15    16    1
    17    15    17   ar
    18    17    18   ar
    19    18     1    1
    20     1     2   ar
    21     2     3    2
    22     2     4   ar
    23     4     5   ar
    24     5     6   ar
    25     6     7   ar
    26     7     8   ar
    27     8    31    1
    28    31    32    2
    29    31    33    2
    30    31    34    1
    31    34    36    1
    32    36    37   ar
    33    37    38   ar
    34    38    39   ar
    35    39    40   ar
    36     8     9   ar
    37     9    10   ar
    38    10    11   ar
    39    18    12   ar
    40    11     1   ar
    41    24    19   ar
    42    11     6   ar
    43    40    36   ar
    44    34    35    1
