@<TRIPOS>MOLECULE
*****
 65 73 0 0 0
SMALL
GASTEIGER

@<TRIPOS>ATOM
      1 N          58.2025   96.1532   -3.7206 N.3     1  UNL1       -0.1862
      2 C          59.6569   96.3701   -4.0166 C.3     1  UNL1        0.1775
      3 C          60.6923   96.0125   -2.9919 C.2     1  UNL1        0.2452
      4 O          62.1468   96.2294   -3.2881 O.2     1  UNL1       -0.2732
      5 N          60.2734   95.4381   -1.6712 N.am    1  UNL1       -0.2541
      6 C          58.8190   95.2212   -1.3751 C.3     1  UNL1        0.1908
      7 C          58.4000   94.6467   -0.0543 C.3     1  UNL1        0.1359
      8 N          59.4354   94.2891    0.9704 N.am    1  UNL1       -0.2705
      9 C          60.8899   94.5061    0.6743 C.2     1  UNL1        0.2445
     10 O          61.9253   94.1485    1.6990 O.2     1  UNL1       -0.2731
     11 C          61.3088   95.0805   -0.6465 C.3     1  UNL1        0.1577
     12 N          57.7836   95.5787   -2.3998 N.am    1  UNL1       -0.1863
     13 C          56.3291   95.3618   -2.1037 C.2     1  UNL1        0.3191
     14 O          55.9102   94.7874   -0.7829 O.2     1  UNL1       -0.2512
     15 N          55.2937   95.7194   -3.1284 N.am    1  UNL1       -0.2836
     16 H          55.5687   96.0964   -3.9953 H       1  UNL1        0.1513
     17 C          57.1670   96.5108   -4.7453 C.3     1  UNL1        0.1188
     18 C          56.5043   94.5717   -6.3424 C.2     1  UNL1       -0.0034
     19 C          57.2057   95.8760   -6.1037 C.2     1  UNL1       -0.0071
     20 C          59.0165   93.7147    2.2912 C.3     1  UNL1        0.1217
     21 C          59.9088   92.7411    3.0026 C.ar    1  UNL1        0.0135
     22 C          61.3487   92.6128    2.6022 C.ar    1  UNL1       -0.0012
     23 C          62.2410   91.6393    3.3135 C.ar    1  UNL1       -0.0002
     24 C          61.6934   90.7941    4.4252 C.ar    1  UNL1        0.0016
     25 C          60.2536   90.9225    4.8256 C.ar    1  UNL1        0.0214
     26 C          59.4380   90.2281    5.8756 C.ar    1  UNL1        0.0722
     27 C          58.0417   90.7724    5.8132 C.ar    1  UNL1        0.0805
     28 N          57.9943   91.8032    4.7247 N.ar    1  UNL1       -0.3241
     29 C          56.7910   92.6012    4.3179 C.3     1  UNL1        0.1305
     30 C          59.3613   91.8960    4.1142 C.ar    1  UNL1        0.0577
     31 C          59.9321   89.1743    6.8220 C.2     1  UNL1        0.2510
     32 O          59.7885   87.7232    6.4700 O.2     1  UNL1       -0.2698
     33 N          60.5697   89.5715    8.1203 N.am    1  UNL1       -0.2791
     34 H          60.6640   90.5239    8.3513 H       1  UNL1        0.1552
     35 C          61.0638   88.5178    9.0666 C.ar    1  UNL1        0.0701
     36 C          60.9622   87.0683    8.6944 C.ar    1  UNL1        0.0191
     37 C          61.4563   86.0146    9.6406 C.ar    1  UNL1        0.0356
     38 C          62.0520   86.4103   10.9592 C.ar    1  UNL1        0.1327
     39 N          62.1536   87.8598   11.3314 N.ar    1  UNL1       -0.2278
     40 C          61.6595   88.9136   10.3851 C.ar    1  UNL1        0.1149
     41 N          62.5461   85.3566   11.9055 N.pl3   1  UNL1       -0.2792
     42 C          63.2621   85.7536   13.1624 C.3     1  UNL1        0.0948
     43 C          63.7563   84.6999   14.1088 C.3     1  UNL1        0.0375
     44 C          63.5343   83.2493   13.7983 C.3     1  UNL1        0.0608
     45 C          63.9051   81.9969   14.5359 C.3     1  UNL1        0.0175
     46 C          63.4181   80.8259   13.7349 C.3     1  UNL1        0.0188
     47 C          62.7464   81.3545   12.5022 C.3     1  UNL1        0.0736
     48 N          62.8183   82.8523   12.5415 N.3     1  UNL1       -0.2570
     49 C          62.3241   83.9060   11.5950 C.3     1  UNL1        0.1699
     50 C          62.7632   95.2974   -0.9425 C.3     1  UNL1        0.0556
     51 C          63.4109   94.5776   -2.0881 C.ar    1  UNL1       -0.0198
     52 C          63.0371   93.1563   -2.3884 C.ar    1  UNL1       -0.0011
     53 C          63.6848   92.4364   -3.5340 C.ar    1  UNL1        0.0363
     54 C          64.7062   93.1379   -4.3792 C.ar    1  UNL1        0.1337
     55 O          65.3539   92.4180   -5.5248 O.3     1  UNL1       -0.5055
     56 C          65.0801   94.5592   -4.0790 C.ar    1  UNL1        0.0363
     57 C          64.4324   95.2791   -2.9334 C.ar    1  UNL1       -0.0011
     58 H          65.1204   91.5302   -5.7124 H       1  UNL1        0.2922
     59 C          53.8393   95.5025   -2.8323 C.3     1  UNL1        0.1177
     60 C          52.8024   95.8840   -3.8468 C.ar    1  UNL1       -0.0025
     61 C          53.2075   96.1693   -5.2626 C.ar    1  UNL1       -0.0026
     62 C          52.1706   96.5509   -6.2771 C.ar    1  UNL1       -0.0003
     63 C          50.7285   96.6471   -5.8758 C.ar    1  UNL1       -0.0000
     64 C          50.3232   96.3618   -4.4600 C.ar    1  UNL1       -0.0003
     65 C          51.3602   95.9803   -3.4455 C.ar    1  UNL1       -0.0026
@<TRIPOS>BOND
     1    18    19    2
     2    19    17    1
     3    17     1    1
     4     1     2    1
     5     2     3    1
     6     3     4    2
     7     3     5   am
     8     5     6    1
     9     6     7    1
    10     7     8    1
    11     8    20    1
    12    20    21    1
    13    21    22   ar
    14    22    23   ar
    15    23    24   ar
    16    24    25   ar
    17    25    26   ar
    18    26    31    1
    19    31    32    2
    20    31    33   am
    21    33    35    1
    22    35    36   ar
    23    36    37   ar
    24    37    38   ar
    25    38    41    1
    26    41    42    1
    27    42    43    1
    28    43    44    1
    29    44    45    1
    30    45    46    1
    31    46    47    1
    32    47    48    1
    33    48    49    1
    34    38    39   ar
    35    39    40   ar
    36    26    27   ar
    37    27    28   ar
    38    28    29    1
    39    28    30   ar
    40     8     9   am
    41     9    10    2
    42     9    11    1
    43    11    50    1
    44    50    51    1
    45    51    52   ar
    46    52    53   ar
    47    53    54   ar
    48    54    55    1
    49    54    56   ar
    50    56    57   ar
    51     6    12    1
    52    12    13   am
    53    13    14    2
    54    13    15   am
    55    15    59    1
    56    59    60    1
    57    60    61   ar
    58    61    62   ar
    59    62    63   ar
    60    63    64   ar
    61    64    65   ar
    62    12     1    1
    63    65    60   ar
    64    11     5    1
    65    57    51   ar
    66    30    21   ar
    67    30    25   ar
    68    40    35   ar
    69    49    41    1
    70    48    44    1
    71    33    34    1
    72    55    58    1
    73    15    16    1
@<TRIPOS>MOLECULE
*****
 65 73 0 0 0
SMALL
GASTEIGER

@<TRIPOS>ATOM
      1 N          58.2267   96.2215   -3.5658 N.3     1  UNL1       -0.1862
      2 C          59.6885   96.4993   -3.7552 C.3     1  UNL1        0.1775
      3 C          60.6715   96.0992   -2.6951 C.2     1  UNL1        0.2452
      4 O          62.1334   96.3771   -2.8846 O.2     1  UNL1       -0.2732
      5 N          60.1927   95.4213   -1.4457 N.am    1  UNL1       -0.2541
      6 C          58.7309   95.1434   -1.2563 C.3     1  UNL1        0.1908
      7 C          58.2520   94.4655   -0.0068 C.3     1  UNL1        0.1359
      8 N          59.2350   94.0654    1.0532 N.am    1  UNL1       -0.2705
      9 C          60.6969   94.3433    0.8637 C.2     1  UNL1        0.2445
     10 O          61.6799   93.9432    1.9237 O.2     1  UNL1       -0.2731
     11 C          61.1757   95.0212   -0.3857 C.3     1  UNL1        0.1577
     12 N          57.7479   95.5435   -2.3163 N.am    1  UNL1       -0.1863
     13 C          56.2861   95.2657   -2.1269 C.2     1  UNL1        0.3191
     14 O          55.8073   94.5877   -0.8775 O.2     1  UNL1       -0.2512
     15 N          55.3031   95.6657   -3.1869 N.am    1  UNL1       -0.2836
     16 H          55.6173   96.1107   -4.0069 H       1  UNL1        0.1513
     17 C          57.2437   96.6216   -4.6258 C.3     1  UNL1        0.1188
     18 C          56.6074   96.3915   -7.1342 C.2     1  UNL1       -0.0034
     19 C          57.0738   95.7720   -5.8502 C.2     1  UNL1       -0.0071
     20 C          58.7563   93.3874    2.3026 C.3     1  UNL1        0.1217
     21 C          59.6704   92.4644    3.0525 C.ar    1  UNL1        0.0135
     22 C          61.1172   92.3665    2.6686 C.ar    1  UNL1       -0.0012
     23 C          62.0313   91.4435    3.4184 C.ar    1  UNL1       -0.0002
     24 C          61.4988   90.6183    4.5522 C.ar    1  UNL1        0.0016
     25 C          60.0520   90.7162    4.9361 C.ar    1  UNL1        0.0214
     26 C          59.2477   90.0316    6.0012 C.ar    1  UNL1        0.0722
     27 C          57.8365   90.5315    5.9096 C.ar    1  UNL1        0.0805
     28 N          57.7686   91.5251    4.7879 N.ar    1  UNL1       -0.3241
     29 C          56.5461   92.2732    4.3456 C.3     1  UNL1        0.1305
     30 C          59.1379   91.6392    4.1863 C.ar    1  UNL1        0.0577
     31 C          59.7641   89.0239    6.9851 C.2     1  UNL1        0.2510
     32 O          59.5459   87.5597    6.7435 O.2     1  UNL1       -0.2698
     33 N          60.4985   89.4806    8.2107 N.am    1  UNL1       -0.2791
     34 H          60.6417   90.4416    8.3693 H       1  UNL1        0.1552
     35 C          61.0149   88.4730    9.1947 C.ar    1  UNL1        0.0701
     36 C          61.8795   87.3408    8.7249 C.ar    1  UNL1        0.0191
     37 C          62.3958   86.3332    9.7088 C.ar    1  UNL1        0.0356
     38 C          62.0476   86.4578   11.1624 C.ar    1  UNL1        0.1327
     39 N          61.1831   87.5900   11.6322 N.ar    1  UNL1       -0.2278
     40 C          60.6667   88.5976   10.6484 C.ar    1  UNL1        0.1149
     41 N          62.5640   85.4503   12.1464 N.pl3   1  UNL1       -0.2792
     42 C          63.3212   85.9055   13.3586 C.3     1  UNL1        0.0948
     43 C          63.8376   84.8981   14.3426 C.3     1  UNL1        0.0375
     44 C          63.5968   83.4352   14.1145 C.3     1  UNL1        0.0608
     45 C          63.9820   82.2194   14.9041 C.3     1  UNL1        0.0175
     46 C          63.4629   81.0127   14.1799 C.3     1  UNL1        0.0188
     47 C          62.7568   81.4827   12.9428 C.3     1  UNL1        0.0736
     48 N          62.8395   82.9798   12.9023 N.3     1  UNL1       -0.2570
     49 C          62.3231   83.9874   11.9183 C.3     1  UNL1        0.1699
     50 C          62.6375   95.2990   -0.5751 C.3     1  UNL1        0.0556
     51 C          63.5271   95.4813    0.6188 C.ar    1  UNL1       -0.0198
     52 C          64.6020   94.4774    0.9134 C.ar    1  UNL1       -0.0011
     53 C          65.4916   94.6597    2.1073 C.ar    1  UNL1        0.0363
     54 C          65.3064   95.8459    3.0065 C.ar    1  UNL1        0.1337
     55 O          66.1961   96.0282    4.2003 O.3     1  UNL1       -0.5055
     56 C          64.2315   96.8499    2.7118 C.ar    1  UNL1        0.0363
     57 C          63.3419   96.6676    1.5180 C.ar    1  UNL1       -0.0011
     58 H          66.8675   95.4011    4.3844 H       1  UNL1        0.2922
     59 C          53.8413   95.3879   -2.9975 C.3     1  UNL1        0.1177
     60 C          52.8482   95.8715   -4.0124 C.ar    1  UNL1       -0.0025
     61 C          51.4200   96.0993   -3.6148 C.ar    1  UNL1       -0.0026
     62 C          50.4270   96.5829   -4.6298 C.ar    1  UNL1       -0.0003
     63 C          50.8622   96.8387   -6.0422 C.ar    1  UNL1       -0.0000
     64 C          52.2905   96.6108   -6.4399 C.ar    1  UNL1       -0.0003
     65 C          53.2835   96.1272   -5.4249 C.ar    1  UNL1       -0.0026
@<TRIPOS>BOND
     1    18    19    2
     2    19    17    1
     3    17     1    1
     4     1     2    1
     5     2     3    1
     6     3     4    2
     7     3     5   am
     8     5     6    1
     9     6     7    1
    10     7     8    1
    11     8    20    1
    12    20    21    1
    13    21    22   ar
    14    22    23   ar
    15    23    24   ar
    16    24    25   ar
    17    25    26   ar
    18    26    31    1
    19    31    32    2
    20    31    33   am
    21    33    35    1
    22    35    36   ar
    23    36    37   ar
    24    37    38   ar
    25    38    41    1
    26    41    42    1
    27    42    43    1
    28    43    44    1
    29    44    45    1
    30    45    46    1
    31    46    47    1
    32    47    48    1
    33    48    49    1
    34    38    39   ar
    35    39    40   ar
    36    26    27   ar
    37    27    28   ar
    38    28    29    1
    39    28    30   ar
    40     8     9   am
    41     9    10    2
    42     9    11    1
    43    11    50    1
    44    50    51    1
    45    51    52   ar
    46    52    53   ar
    47    53    54   ar
    48    54    55    1
    49    54    56   ar
    50    56    57   ar
    51     6    12    1
    52    12    13   am
    53    13    14    2
    54    13    15   am
    55    15    59    1
    56    59    60    1
    57    60    61   ar
    58    61    62   ar
    59    62    63   ar
    60    63    64   ar
    61    64    65   ar
    62    12     1    1
    63    65    60   ar
    64    11     5    1
    65    57    51   ar
    66    30    21   ar
    67    30    25   ar
    68    40    35   ar
    69    49    41    1
    70    48    44    1
    71    33    34    1
    72    55    58    1
    73    15    16    1
