@<TRIPOS>MOLECULE
*****
 56 62 0 0 0
SMALL
GASTEIGER

@<TRIPOS>ATOM
      1 N          62.8642   84.0992    9.4019 N.3     1  UNL1       -0.1862
      2 C          62.1900   84.1740    8.0641 C.3     1  UNL1        0.1775
      3 C          61.3550   85.3690    7.7107 C.2     1  UNL1        0.2452
      4 O          60.6808   85.4437    6.3728 O.2     1  UNL1       -0.2732
      5 N          61.1943   86.4892    8.6951 N.am    1  UNL1       -0.2541
      6 C          60.3594   87.6842    8.3418 C.3     1  UNL1        0.1577
      7 C          60.1987   88.8045    9.3262 C.2     1  UNL1        0.2445
      8 O          59.3637   89.9995    8.9728 O.2     1  UNL1       -0.2731
      9 N          60.8729   88.7297   10.6641 N.am    1  UNL1       -0.2705
     10 C          61.7078   87.5348   11.0175 C.3     1  UNL1        0.1359
     11 C          61.8685   86.4145   10.0329 C.3     1  UNL1        0.1908
     12 N          62.7035   85.2195   10.3863 N.am    1  UNL1       -0.1863
     13 C          63.3777   85.1448   11.7242 C.2     1  UNL1        0.3191
     14 O          63.2170   86.2650   12.7087 O.2     1  UNL1       -0.2512
     15 N          64.2126   83.9498   12.0776 N.am    1  UNL1       -0.2836
     16 H          64.3181   83.2145   11.4314 H       1  UNL1        0.1513
     17 C          63.6991   82.9042    9.7552 C.3     1  UNL1        0.1188
     18 C          62.7967   81.3251   11.6105 C.2     1  UNL1       -0.0034
     19 C          63.0376   81.6202   10.1597 C.2     1  UNL1       -0.0071
     20 C          59.6852   87.7590    7.0039 C.3     1  UNL1        0.0556
     21 C          59.5386   89.0811    6.3108 C.ar    1  UNL1       -0.0198
     22 C          60.7460   89.7716    5.7494 C.ar    1  UNL1       -0.0011
     23 C          60.5994   91.0937    5.0562 C.ar    1  UNL1        0.0363
     24 C          59.2454   91.7254    4.9245 C.ar    1  UNL1        0.1337
     25 O          59.0988   93.0475    4.2313 O.3     1  UNL1       -0.5055
     26 C          58.0378   91.0349    5.4859 C.ar    1  UNL1        0.0363
     27 C          58.1844   89.7128    6.1790 C.ar    1  UNL1       -0.0011
     28 H          59.8531   93.4788    3.8806 H       1  UNL1        0.2922
     29 C          60.7122   89.8500   11.6486 C.3     1  UNL1        0.1217
     30 C          61.7749   90.1035   12.6764 C.ar    1  UNL1        0.0135
     31 C          61.5772   89.6409   14.0895 C.ar    1  UNL1       -0.0012
     32 C          62.6399   89.8944   15.1173 C.ar    1  UNL1       -0.0002
     33 C          63.9003   90.6106   14.7319 C.ar    1  UNL1        0.0016
     34 C          64.0980   91.0732   13.3188 C.ar    1  UNL1        0.0214
     35 C          65.2271   91.7987   12.6489 C.ar    1  UNL1        0.0731
     36 C          64.8621   91.9936   11.2071 C.ar    1  UNL1        0.0805
     37 N          63.5076   91.3885   10.9859 N.ar    1  UNL1       -0.3241
     38 C          62.7570   91.3577    9.6876 C.3     1  UNL1        0.1305
     39 C          63.0353   90.8196   12.2910 C.ar    1  UNL1        0.0577
     40 C          66.4980   92.2502   13.3055 C.2     1  UNL1        0.2605
     41 O          67.7406   92.4359   12.4861 O.2     1  UNL1       -0.2688
     42 N          66.5262   92.5158   14.7815 N.am    1  UNL1       -0.2428
     43 H          65.7107   92.3939   15.3193 H       1  UNL1        0.1696
     44 N          67.7970   92.9672   15.4382 N.3     1  UNL1       -0.2006
     45 C          68.1580   94.4231   15.4518 C.3     1  UNL1        0.1240
     46 C          69.4288   94.8745   16.1085 C.3     1  UNL1        0.1612
     47 O          70.3386   93.8702   16.7515 O.3     1  UNL1       -0.3507
     48 C          69.9776   92.4143   16.7379 C.3     1  UNL1        0.1612
     49 C          68.7068   91.9628   16.0813 C.3     1  UNL1        0.1240
     50 C          64.8868   83.8750   13.4154 C.3     1  UNL1        0.1177
     51 C          64.2791   84.5640   14.6011 C.ar    1  UNL1       -0.0025
     52 C          63.1256   83.9346   15.3245 C.ar    1  UNL1       -0.0026
     53 C          62.5179   84.6236   16.5102 C.ar    1  UNL1       -0.0003
     54 C          63.0636   85.9421   16.9725 C.ar    1  UNL1       -0.0000
     55 C          64.2171   86.5716   16.2492 C.ar    1  UNL1       -0.0003
     56 C          64.8249   85.8826   15.0635 C.ar    1  UNL1       -0.0026
@<TRIPOS>BOND
     1    18    19    2
     2    19    17    1
     3    17     1    1
     4     1     2    1
     5     2     3    1
     6     3     4    2
     7     3     5   am
     8     5     6    1
     9     6    20    1
    10    20    21    1
    11    21    22   ar
    12    22    23   ar
    13    23    24   ar
    14    24    25    1
    15    24    26   ar
    16    26    27   ar
    17     6     7    1
    18     7     8    2
    19     7     9   am
    20     9    29    1
    21    29    30    1
    22    30    31   ar
    23    31    32   ar
    24    32    33   ar
    25    33    34   ar
    26    34    35   ar
    27    35    40    1
    28    40    41    2
    29    40    42   am
    30    42    44    1
    31    44    45    1
    32    45    46    1
    33    46    47    1
    34    47    48    1
    35    48    49    1
    36    35    36   ar
    37    36    37   ar
    38    37    38    1
    39    37    39   ar
    40     9    10    1
    41    11    10    1
    42    11    12    1
    43    12    13   am
    44    13    14    2
    45    13    15   am
    46    15    50    1
    47    50    51    1
    48    51    52   ar
    49    52    53   ar
    50    53    54   ar
    51    54    55   ar
    52    55    56   ar
    53    12     1    1
    54    56    51   ar
    55    11     5    1
    56    27    21   ar
    57    39    30   ar
    58    39    34   ar
    59    49    44    1
    60    25    28    1
    61    42    43    1
    62    15    16    1
@<TRIPOS>MOLECULE
*****
 56 62 0 0 0
SMALL
GASTEIGER

@<TRIPOS>ATOM
      1 N          62.7986   83.9755    9.5775 N.3     1  UNL1       -0.1862
      2 C          62.1118   84.0011    8.2442 C.3     1  UNL1        0.1775
      3 C          61.3756   85.2314    7.8033 C.2     1  UNL1        0.2452
      4 O          60.6888   85.2570    6.4700 O.2     1  UNL1       -0.2732
      5 N          61.3263   86.4362    8.6956 N.am    1  UNL1       -0.2541
      6 C          60.5902   87.6665    8.2546 C.3     1  UNL1        0.1577
      7 C          60.5409   88.8712    9.1469 C.2     1  UNL1        0.2445
      8 O          59.8048   90.1015    8.7059 O.2     1  UNL1       -0.2731
      9 N          61.2277   88.8456   10.4802 N.am    1  UNL1       -0.2705
     10 C          61.9639   87.6153   10.9212 C.3     1  UNL1        0.1359
     11 C          62.0131   86.4105   10.0288 C.3     1  UNL1        0.1908
     12 N          62.7493   85.1802   10.4698 N.am    1  UNL1       -0.1863
     13 C          63.4361   85.1547   11.8031 C.2     1  UNL1        0.3191
     14 O          63.3868   86.3594   12.6954 O.2     1  UNL1       -0.2512
     15 N          64.1722   83.9244   12.2441 N.am    1  UNL1       -0.2836
     16 H          64.2046   83.1337   11.6584 H       1  UNL1        0.1513
     17 C          63.5347   82.7452   10.0185 C.3     1  UNL1        0.1188
     18 C          62.6594   81.1938   11.9097 C.2     1  UNL1       -0.0034
     19 C          62.7709   81.5292   10.4519 C.2     1  UNL1       -0.0071
     20 C          59.9034   87.6921    6.9214 C.3     1  UNL1        0.0556
     21 C          59.6364   89.0016    6.2402 C.ar    1  UNL1       -0.0198
     22 C          58.2467   89.5655    6.2173 C.ar    1  UNL1       -0.0011
     23 C          57.9798   90.8750    5.5362 C.ar    1  UNL1        0.0363
     24 C          59.1026   91.6206    4.8779 C.ar    1  UNL1        0.1337
     25 O          58.8357   92.9301    4.1967 O.3     1  UNL1       -0.5055
     26 C          60.4924   91.0566    4.9007 C.ar    1  UNL1        0.0363
     27 C          60.7593   89.7471    5.5819 C.ar    1  UNL1       -0.0011
     28 H          57.9675   93.2823    4.1825 H       1  UNL1        0.2922
     29 C          61.1784   90.0503   11.3725 C.3     1  UNL1        0.1217
     30 C          62.4323   90.8212   11.6618 C.ar    1  UNL1        0.0135
     31 C          63.1099   91.5895   10.5661 C.ar    1  UNL1       -0.0012
     32 C          64.3637   92.3604   10.8554 C.ar    1  UNL1       -0.0002
     33 C          64.9399   92.3630   12.2403 C.ar    1  UNL1        0.0016
     34 C          64.2622   91.5946   13.3359 C.ar    1  UNL1        0.0214
     35 C          64.5939   91.4123   14.7874 C.ar    1  UNL1        0.0731
     36 C          63.5451   90.5288   15.3952 C.ar    1  UNL1        0.0805
     37 N          62.5653   90.1651   14.3194 N.ar    1  UNL1       -0.3241
     38 C          61.3547   89.2953   14.4868 C.3     1  UNL1        0.1305
     39 C          63.0084   90.8238   13.0467 C.ar    1  UNL1        0.0577
     40 C          65.7683   92.0089   15.5051 C.2     1  UNL1        0.2605
     41 O          65.6147   92.5036   16.9128 O.2     1  UNL1       -0.2688
     42 N          67.0963   92.1108   14.8150 N.am    1  UNL1       -0.2428
     43 H          67.1971   91.7861   13.8911 H       1  UNL1        0.1696
     44 N          68.2706   92.7073   15.5326 N.3     1  UNL1       -0.2006
     45 C          68.5069   94.1877   15.4829 C.3     1  UNL1        0.1240
     46 C          69.6812   94.7843   16.2005 C.3     1  UNL1        0.1612
     47 O          70.6194   93.9005   16.9678 O.3     1  UNL1       -0.3507
     48 C          70.3831   92.4200   17.0175 C.3     1  UNL1        0.1612
     49 C          69.2087   91.8234   16.2999 C.3     1  UNL1        0.1240
     50 C          64.8590   83.8988   13.5773 C.3     1  UNL1        0.1177
     51 C          64.2388   84.5921   14.7539 C.ar    1  UNL1       -0.0025
     52 C          63.0430   83.9929   15.4328 C.ar    1  UNL1       -0.0026
     53 C          62.4227   84.6863   16.6094 C.ar    1  UNL1       -0.0003
     54 C          62.9983   85.9789   17.1072 C.ar    1  UNL1       -0.0000
     55 C          64.1942   86.5782   16.4284 C.ar    1  UNL1       -0.0003
     56 C          64.8145   85.8848   15.2517 C.ar    1  UNL1       -0.0026
@<TRIPOS>BOND
     1    18    19    2
     2    19    17    1
     3    17     1    1
     4     1     2    1
     5     2     3    1
     6     3     4    2
     7     3     5   am
     8     5     6    1
     9     6    20    1
    10    20    21    1
    11    21    22   ar
    12    22    23   ar
    13    23    24   ar
    14    24    25    1
    15    24    26   ar
    16    26    27   ar
    17     6     7    1
    18     7     8    2
    19     7     9   am
    20     9    29    1
    21    29    30    1
    22    30    31   ar
    23    31    32   ar
    24    32    33   ar
    25    33    34   ar
    26    34    35   ar
    27    35    40    1
    28    40    41    2
    29    40    42   am
    30    42    44    1
    31    44    45    1
    32    45    46    1
    33    46    47    1
    34    47    48    1
    35    48    49    1
    36    35    36   ar
    37    36    37   ar
    38    37    38    1
    39    37    39   ar
    40     9    10    1
    41    11    10    1
    42    11    12    1
    43    12    13   am
    44    13    14    2
    45    13    15   am
    46    15    50    1
    47    50    51    1
    48    51    52   ar
    49    52    53   ar
    50    53    54   ar
    51    54    55   ar
    52    55    56   ar
    53    12     1    1
    54    56    51   ar
    55    11     5    1
    56    27    21   ar
    57    39    30   ar
    58    39    34   ar
    59    49    44    1
    60    25    28    1
    61    42    43    1
    62    15    16    1
