@<TRIPOS>MOLECULE
*****
 23 26 0 0 0
SMALL
GASTEIGER

@<TRIPOS>ATOM
      1 C          64.6034   91.2262   13.4508 C.ar    1  UNL1        0.1388
      2 C          65.0385   90.1867   14.4408 C.ar    1  UNL1        0.0369
      3 C          64.5735   88.7684   14.2924 C.ar    1  UNL1        0.0031
      4 C          63.6733   88.3894   13.1540 C.ar    1  UNL1        0.0010
      5 C          63.2083   86.9711   13.0056 C.ar    1  UNL1        0.0001
      6 C          62.3081   86.5922   11.8672 C.ar    1  UNL1        0.0009
      7 C          61.8729   87.6316   10.8771 C.ar    1  UNL1        0.0121
      8 C          62.3379   89.0500   11.0255 C.ar    1  UNL1        0.0578
      9 CL         61.9027   90.0894   10.0355 Cl      1  UNL1       -0.0822
     10 C          63.2382   89.4289   12.1640 C.ar    1  UNL1        0.0136
     11 C          63.7032   90.8472   12.3124 C.ar    1  UNL1        0.0377
     12 C          60.9727   87.2527    9.7387 C.ar    1  UNL1        0.0200
     13 C          59.5857   87.8184    9.6589 C.ar    1  UNL1        0.0989
     14 N          58.6855   87.4394    8.5205 N.ar    1  UNL1       -0.2423
     15 C          59.1723   86.4948    7.4618 C.ar    1  UNL1        0.0988
     16 C          60.5592   85.9292    7.5415 C.ar    1  UNL1        0.0192
     17 C          61.0459   84.9846    6.4828 C.ar    1  UNL1        0.0015
     18 C          62.4330   84.4189    6.5626 C.ar    1  UNL1        0.0000
     19 C          63.3331   84.7979    7.7010 C.ar    1  UNL1        0.0000
     20 C          62.8464   85.7425    8.7597 C.ar    1  UNL1        0.0001
     21 C          61.4595   86.3081    8.6800 C.ar    1  UNL1        0.0030
     22 C          66.1309   93.1846   12.6886 C.3     1  UNL1        0.2525
     23 O          65.0684   92.6445   13.5992 O.3     1  UNL1       -0.4714
@<TRIPOS>BOND
     1    22    23    1
     2    23     1    1
     3     1     2   ar
     4     2     3   ar
     5     3     4   ar
     6     4     5   ar
     7     5     6   ar
     8     6     7   ar
     9     7    12    1
    10    12    13   ar
    11    13    14   ar
    12    14    15   ar
    13    15    16   ar
    14    16    17   ar
    15    17    18   ar
    16    18    19   ar
    17    19    20   ar
    18    20    21   ar
    19     7     8   ar
    20     8     9    1
    21     8    10   ar
    22    10    11   ar
    23    11     1   ar
    24    10     4   ar
    25    21    12   ar
    26    21    16   ar
@<TRIPOS>MOLECULE
*****
 23 26 0 0 0
SMALL
GASTEIGER

@<TRIPOS>ATOM
      1 C          64.6749   91.1406   13.7445 C.ar    1  UNL1        0.1388
      2 C          63.9954   91.5791   12.4812 C.ar    1  UNL1        0.0369
      3 C          63.2502   90.5812   11.6452 C.ar    1  UNL1        0.0031
      4 C          63.1845   89.1449   12.0725 C.ar    1  UNL1        0.0010
      5 C          62.4393   88.1470   11.2364 C.ar    1  UNL1        0.0001
      6 C          62.3736   86.7107   11.6637 C.ar    1  UNL1        0.0009
      7 C          63.0531   86.2722   12.9271 C.ar    1  UNL1        0.0121
      8 C          63.7983   87.2700   13.7631 C.ar    1  UNL1        0.0578
      9 CL         64.4777   86.8316   15.0265 Cl      1  UNL1       -0.0822
     10 C          63.8640   88.7064   13.3358 C.ar    1  UNL1        0.0136
     11 C          64.6092   89.7043   14.1718 C.ar    1  UNL1        0.0377
     12 C          62.9874   84.8359   13.3544 C.ar    1  UNL1        0.0200
     13 C          62.6746   84.4911   14.7804 C.ar    1  UNL1        0.0989
     14 N          62.6088   83.0548   15.2077 N.ar    1  UNL1       -0.2423
     15 C          62.8559   81.9632   14.2090 C.ar    1  UNL1        0.0988
     16 C          63.1687   82.3078   12.7831 C.ar    1  UNL1        0.0192
     17 C          63.4158   81.2162   11.7845 C.ar    1  UNL1        0.0015
     18 C          63.7286   81.5609   10.3585 C.ar    1  UNL1        0.0000
     19 C          63.7943   82.9973    9.9312 C.ar    1  UNL1        0.0000
     20 C          63.5472   84.0889   10.9298 C.ar    1  UNL1        0.0001
     21 C          63.2344   83.7442   12.3558 C.ar    1  UNL1        0.0030
     22 C          66.4873   92.9897   13.9590 C.3     1  UNL1        0.2525
     23 O          65.4201   92.1385   14.5806 O.3     1  UNL1       -0.4714
@<TRIPOS>BOND
     1    22    23    1
     2    23     1    1
     3     1     2   ar
     4     2     3   ar
     5     3     4   ar
     6     4     5   ar
     7     5     6   ar
     8     6     7   ar
     9     7    12    1
    10    12    13   ar
    11    13    14   ar
    12    14    15   ar
    13    15    16   ar
    14    16    17   ar
    15    17    18   ar
    16    18    19   ar
    17    19    20   ar
    18    20    21   ar
    19     7     8   ar
    20     8     9    1
    21     8    10   ar
    22    10    11   ar
    23    11     1   ar
    24    10     4   ar
    25    21    12   ar
    26    21    16   ar
@<TRIPOS>MOLECULE
*****
 23 26 0 0 0
SMALL
GASTEIGER

@<TRIPOS>ATOM
      1 C          62.5906   85.5914   11.1164 C.ar    1  UNL1        0.1388
      2 C          62.0857   86.3114    9.9012 C.ar    1  UNL1        0.0369
      3 C          62.1090   87.8104    9.8539 C.ar    1  UNL1        0.0031
      4 C          62.6371   88.5895   11.0218 C.ar    1  UNL1        0.0010
      5 C          62.6604   90.0886   10.9745 C.ar    1  UNL1        0.0001
      6 C          63.1886   90.8677   12.1424 C.ar    1  UNL1        0.0009
      7 C          63.6935   90.1477   13.3577 C.ar    1  UNL1        0.0121
      8 C          63.6702   88.6487   13.4050 C.ar    1  UNL1        0.0578
      9 CL         64.1750   87.9287   14.6202 Cl      1  UNL1       -0.0822
     10 C          63.1420   87.8696   12.2370 C.ar    1  UNL1        0.0136
     11 C          63.1187   86.3705   12.2843 C.ar    1  UNL1        0.0377
     12 C          64.2216   90.9268   14.5256 C.ar    1  UNL1        0.0200
     13 C          63.3741   91.1106   15.7496 C.ar    1  UNL1        0.0989
     14 N          63.9022   91.8897   16.9174 N.ar    1  UNL1       -0.2423
     15 C          65.2779   92.4851   16.8615 C.ar    1  UNL1        0.0988
     16 C          66.1254   92.3013   15.6376 C.ar    1  UNL1        0.0192
     17 C          67.5011   92.8966   15.5816 C.ar    1  UNL1        0.0015
     18 C          68.3486   92.7128   14.3576 C.ar    1  UNL1        0.0000
     19 C          67.8204   91.9337   13.1898 C.ar    1  UNL1        0.0000
     20 C          66.4448   91.3384   13.2457 C.ar    1  UNL1        0.0001
     21 C          65.5973   91.5222   14.4696 C.ar    1  UNL1        0.0030
     22 C          63.8175   83.3135   10.8804 C.3     1  UNL1        0.2525
     23 O          62.5673   84.0923   11.1637 O.3     1  UNL1       -0.4714
@<TRIPOS>BOND
     1    22    23    1
     2    23     1    1
     3     1     2   ar
     4     2     3   ar
     5     3     4   ar
     6     4     5   ar
     7     5     6   ar
     8     6     7   ar
     9     7    12    1
    10    12    13   ar
    11    13    14   ar
    12    14    15   ar
    13    15    16   ar
    14    16    17   ar
    15    17    18   ar
    16    18    19   ar
    17    19    20   ar
    18    20    21   ar
    19     7     8   ar
    20     8     9    1
    21     8    10   ar
    22    10    11   ar
    23    11     1   ar
    24    10     4   ar
    25    21    12   ar
    26    21    16   ar
@<TRIPOS>MOLECULE
*****
 23 26 0 0 0
SMALL
GASTEIGER

@<TRIPOS>ATOM
      1 C          63.1862   90.1119   12.1682 C.ar    1  UNL1        0.1388
      2 C          64.1169   90.5142   13.2735 C.ar    1  UNL1        0.0369
      3 C          64.6305   89.4831   14.2342 C.ar    1  UNL1        0.0031
      4 C          64.2134   88.0496   14.0896 C.ar    1  UNL1        0.0010
      5 C          64.7269   87.0184   15.0503 C.ar    1  UNL1        0.0001
      6 C          64.3098   85.5849   14.9057 C.ar    1  UNL1        0.0009
      7 C          63.3790   85.1825   13.8004 C.ar    1  UNL1        0.0121
      8 C          62.8654   86.2136   12.8397 C.ar    1  UNL1        0.0578
      9 CL         61.9346   85.8112   11.7344 Cl      1  UNL1       -0.0822
     10 C          63.2826   87.6472   12.9843 C.ar    1  UNL1        0.0136
     11 C          62.7690   88.6783   12.0236 C.ar    1  UNL1        0.0377
     12 C          62.9618   83.7489   13.6558 C.ar    1  UNL1        0.0200
     13 C          62.2408   83.0609   14.7769 C.ar    1  UNL1        0.0989
     14 N          61.8237   81.6274   14.6323 N.ar    1  UNL1       -0.2423
     15 C          62.1274   80.8818   13.3667 C.ar    1  UNL1        0.0988
     16 C          62.8483   81.5698   12.2456 C.ar    1  UNL1        0.0192
     17 C          63.1521   80.8243   10.9799 C.ar    1  UNL1        0.0015
     18 C          63.8731   81.5124    9.8588 C.ar    1  UNL1        0.0000
     19 C          64.2902   82.9459   10.0034 C.ar    1  UNL1        0.0000
     20 C          63.9865   83.6914   11.2690 C.ar    1  UNL1        0.0001
     21 C          63.2656   83.0034   12.3901 C.ar    1  UNL1        0.0030
     22 C          63.5183   91.5726   10.0455 C.3     1  UNL1        0.2525
     23 O          62.6726   91.1430   11.2075 O.3     1  UNL1       -0.4714
@<TRIPOS>BOND
     1    22    23    1
     2    23     1    1
     3     1     2   ar
     4     2     3   ar
     5     3     4   ar
     6     4     5   ar
     7     5     6   ar
     8     6     7   ar
     9     7    12    1
    10    12    13   ar
    11    13    14   ar
    12    14    15   ar
    13    15    16   ar
    14    16    17   ar
    15    17    18   ar
    16    18    19   ar
    17    19    20   ar
    18    20    21   ar
    19     7     8   ar
    20     8     9    1
    21     8    10   ar
    22    10    11   ar
    23    11     1   ar
    24    10     4   ar
    25    21    12   ar
    26    21    16   ar
@<TRIPOS>MOLECULE
*****
 23 26 0 0 0
SMALL
GASTEIGER

@<TRIPOS>ATOM
      1 C          66.2925   94.0748   12.2962 C.ar    1  UNL1        0.1388
      2 C          66.5969   93.7655   13.7320 C.ar    1  UNL1        0.0369
      3 C          65.9799   92.5658   14.3879 C.ar    1  UNL1        0.0031
      4 C          65.0586   91.6755   13.6079 C.ar    1  UNL1        0.0010
      5 C          64.4416   90.4758   14.2637 C.ar    1  UNL1        0.0001
      6 C          63.5202   89.5855   13.4837 C.ar    1  UNL1        0.0009
      7 C          63.2159   89.8948   12.0478 C.ar    1  UNL1        0.0121
      8 C          63.8328   91.0944   11.3920 C.ar    1  UNL1        0.0578
      9 CL         63.5285   91.4038    9.9562 Cl      1  UNL1       -0.0822
     10 C          64.7542   91.9848   12.1721 C.ar    1  UNL1        0.0136
     11 C          65.3712   93.1845   11.5162 C.ar    1  UNL1        0.0377
     12 C          62.2945   89.0044   11.2678 C.ar    1  UNL1        0.0200
     13 C          61.3122   89.6016   10.3042 C.ar    1  UNL1        0.0989
     14 N          60.3909   88.7112    9.5242 N.ar    1  UNL1       -0.2423
     15 C          60.4518   87.2238    9.7078 C.ar    1  UNL1        0.0988
     16 C          61.4341   86.6266   10.6714 C.ar    1  UNL1        0.0192
     17 C          61.4950   85.1392   10.8550 C.ar    1  UNL1        0.0015
     18 C          62.4774   84.5420   11.8186 C.ar    1  UNL1        0.0000
     19 C          63.3987   85.4324   12.5986 C.ar    1  UNL1        0.0000
     20 C          63.3377   86.9198   12.4150 C.ar    1  UNL1        0.0001
     21 C          62.3555   87.5170   11.4514 C.ar    1  UNL1        0.0030
     22 C          66.0357   96.3764   11.1187 C.3     1  UNL1        0.2525
     23 O          66.9095   95.2745   11.6403 O.3     1  UNL1       -0.4714
@<TRIPOS>BOND
     1    22    23    1
     2    23     1    1
     3     1     2   ar
     4     2     3   ar
     5     3     4   ar
     6     4     5   ar
     7     5     6   ar
     8     6     7   ar
     9     7    12    1
    10    12    13   ar
    11    13    14   ar
    12    14    15   ar
    13    15    16   ar
    14    16    17   ar
    15    17    18   ar
    16    18    19   ar
    17    19    20   ar
    18    20    21   ar
    19     7     8   ar
    20     8     9    1
    21     8    10   ar
    22    10    11   ar
    23    11     1   ar
    24    10     4   ar
    25    21    12   ar
    26    21    16   ar
@<TRIPOS>MOLECULE
*****
 23 26 0 0 0
SMALL
GASTEIGER

@<TRIPOS>ATOM
      1 C          59.5697   88.4179    7.8657 C.ar    1  UNL1        0.1388
      2 C          59.8554   86.9454    7.8625 C.ar    1  UNL1        0.0369
      3 C          60.7831   86.3593    8.8852 C.ar    1  UNL1        0.0031
      4 C          61.4251   87.2456    9.9110 C.ar    1  UNL1        0.0010
      5 C          62.3528   86.6594   10.9336 C.ar    1  UNL1        0.0001
      6 C          62.9947   87.5458   11.9594 C.ar    1  UNL1        0.0009
      7 C          62.7089   89.0184   11.9626 C.ar    1  UNL1        0.0121
      8 C          61.7812   89.6045   10.9400 C.ar    1  UNL1        0.0578
      9 CL         61.4954   91.0770   10.9431 Cl      1  UNL1       -0.0822
     10 C          61.1393   88.7181    9.9141 C.ar    1  UNL1        0.0136
     11 C          60.2116   89.3042    8.8915 C.ar    1  UNL1        0.0377
     12 C          63.3508   89.9047   12.9884 C.ar    1  UNL1        0.0200
     13 C          63.0800   89.6821   14.4469 C.ar    1  UNL1        0.0989
     14 N          63.7219   90.5685   15.4727 N.ar    1  UNL1       -0.2423
     15 C          64.6346   91.6774   15.0401 C.ar    1  UNL1        0.0988
     16 C          64.9054   91.9000   13.5816 C.ar    1  UNL1        0.0192
     17 C          65.8182   93.0090   13.1490 C.ar    1  UNL1        0.0015
     18 C          66.0889   93.2316   11.6905 C.ar    1  UNL1        0.0000
     19 C          65.4470   92.3452   10.6647 C.ar    1  UNL1        0.0000
     20 C          64.5343   91.2363   11.0973 C.ar    1  UNL1        0.0001
     21 C          64.2635   91.0137   12.5558 C.ar    1  UNL1        0.0030
     22 C          59.1318   90.0721    5.9107 C.3     1  UNL1        0.2525
     23 O          58.6419   89.0040    6.8430 O.3     1  UNL1       -0.4714
@<TRIPOS>BOND
     1    22    23    1
     2    23     1    1
     3     1     2   ar
     4     2     3   ar
     5     3     4   ar
     6     4     5   ar
     7     5     6   ar
     8     6     7   ar
     9     7    12    1
    10    12    13   ar
    11    13    14   ar
    12    14    15   ar
    13    15    16   ar
    14    16    17   ar
    15    17    18   ar
    16    18    19   ar
    17    19    20   ar
    18    20    21   ar
    19     7     8   ar
    20     8     9    1
    21     8    10   ar
    22    10    11   ar
    23    11     1   ar
    24    10     4   ar
    25    21    12   ar
    26    21    16   ar
@<TRIPOS>MOLECULE
*****
 23 26 0 0 0
SMALL
GASTEIGER

@<TRIPOS>ATOM
      1 C          66.4798   92.8484   14.7590 C.ar    1  UNL1        0.1388
      2 C          66.5258   93.8748   13.6661 C.ar    1  UNL1        0.0369
      3 C          65.8133   93.6231   12.3703 C.ar    1  UNL1        0.0031
      4 C          65.0548   92.3451   12.1675 C.ar    1  UNL1        0.0010
      5 C          64.3423   92.0934   10.8717 C.ar    1  UNL1        0.0001
      6 C          63.5837   90.8154   10.6688 C.ar    1  UNL1        0.0009
      7 C          63.5376   89.7890   11.7617 C.ar    1  UNL1        0.0121
      8 C          64.2501   90.0406   13.0575 C.ar    1  UNL1        0.0578
      9 CL         64.2040   89.0143   14.1504 Cl      1  UNL1       -0.0822
     10 C          65.0087   91.3187   13.2603 C.ar    1  UNL1        0.0136
     11 C          65.7212   91.5704   14.5561 C.ar    1  UNL1        0.0377
     12 C          62.7790   88.5110   11.5589 C.ar    1  UNL1        0.0200
     13 C          63.0941   87.3100   12.4006 C.ar    1  UNL1        0.0989
     14 N          62.3355   86.0320   12.1978 N.ar    1  UNL1       -0.2423
     15 C          61.2619   85.9549   11.1531 C.ar    1  UNL1        0.0988
     16 C          60.9468   87.1557   10.3114 C.ar    1  UNL1        0.0192
     17 C          59.8731   87.0785    9.2667 C.ar    1  UNL1        0.0015
     18 C          59.5580   88.2795    8.4249 C.ar    1  UNL1        0.0000
     19 C          60.3166   89.5575    8.6278 C.ar    1  UNL1        0.0000
     20 C          61.3903   89.6347    9.6724 C.ar    1  UNL1        0.0001
     21 C          61.7054   88.4338   10.5142 C.ar    1  UNL1        0.0030
     22 C          68.5547   93.7275   16.0519 C.3     1  UNL1        0.2525
     23 O          67.1923   93.1001   16.0547 O.3     1  UNL1       -0.4714
@<TRIPOS>BOND
     1    22    23    1
     2    23     1    1
     3     1     2   ar
     4     2     3   ar
     5     3     4   ar
     6     4     5   ar
     7     5     6   ar
     8     6     7   ar
     9     7    12    1
    10    12    13   ar
    11    13    14   ar
    12    14    15   ar
    13    15    16   ar
    14    16    17   ar
    15    17    18   ar
    16    18    19   ar
    17    19    20   ar
    18    20    21   ar
    19     7     8   ar
    20     8     9    1
    21     8    10   ar
    22    10    11   ar
    23    11     1   ar
    24    10     4   ar
    25    21    12   ar
    26    21    16   ar
@<TRIPOS>MOLECULE
*****
 23 26 0 0 0
SMALL
GASTEIGER

@<TRIPOS>ATOM
      1 C          61.7646   87.4686    9.8813 C.ar    1  UNL1        0.1388
      2 C          62.0996   86.0725   10.3154 C.ar    1  UNL1        0.0369
      3 C          62.8174   85.8421   11.6122 C.ar    1  UNL1        0.0031
      4 C          63.2001   87.0078   12.4750 C.ar    1  UNL1        0.0010
      5 C          63.9178   86.7774   13.7718 C.ar    1  UNL1        0.0001
      6 C          64.3006   87.9432   14.6346 C.ar    1  UNL1        0.0009
      7 C          63.9656   89.3395   14.2006 C.ar    1  UNL1        0.0121
      8 C          63.2478   89.5699   12.9037 C.ar    1  UNL1        0.0578
      9 CL         62.9128   90.9660   12.4697 Cl      1  UNL1       -0.0822
     10 C          62.8651   88.4040   12.0409 C.ar    1  UNL1        0.0136
     11 C          62.1474   88.6344   10.7441 C.ar    1  UNL1        0.0377
     12 C          64.3483   90.5052   15.0633 C.ar    1  UNL1        0.0200
     13 C          63.4755   90.9034   16.2165 C.ar    1  UNL1        0.0989
     14 N          63.8582   92.0692   17.0793 N.ar    1  UNL1       -0.2423
     15 C          65.1138   92.8368   16.7890 C.ar    1  UNL1        0.0988
     16 C          65.9866   92.4387   15.6359 C.ar    1  UNL1        0.0192
     17 C          67.2422   93.2064   15.3456 C.ar    1  UNL1        0.0015
     18 C          68.1150   92.8082   14.1925 C.ar    1  UNL1        0.0000
     19 C          67.7323   91.6424   13.3297 C.ar    1  UNL1        0.0000
     20 C          66.4767   90.8748   13.6200 C.ar    1  UNL1        0.0001
     21 C          65.6039   91.2729   14.7731 C.ar    1  UNL1        0.0030
     22 C          59.8568   86.8591    8.2264 C.3     1  UNL1        0.2525
     23 O          61.0469   87.6990    8.5845 O.3     1  UNL1       -0.4714
@<TRIPOS>BOND
     1    22    23    1
     2    23     1    1
     3     1     2   ar
     4     2     3   ar
     5     3     4   ar
     6     4     5   ar
     7     5     6   ar
     8     6     7   ar
     9     7    12    1
    10    12    13   ar
    11    13    14   ar
    12    14    15   ar
    13    15    16   ar
    14    16    17   ar
    15    17    18   ar
    16    18    19   ar
    17    19    20   ar
    18    20    21   ar
    19     7     8   ar
    20     8     9    1
    21     8    10   ar
    22    10    11   ar
    23    11     1   ar
    24    10     4   ar
    25    21    12   ar
    26    21    16   ar
@<TRIPOS>MOLECULE
*****
 23 26 0 0 0
SMALL
GASTEIGER

@<TRIPOS>ATOM
      1 C          67.0291   91.8368   14.3924 C.ar    1  UNL1        0.1388
      2 C          67.5705   92.6702   13.2689 C.ar    1  UNL1        0.0369
      3 C          66.7984   92.7965   11.9891 C.ar    1  UNL1        0.0031
      4 C          65.4849   92.0894   11.8327 C.ar    1  UNL1        0.0010
      5 C          64.7128   92.2157   10.5529 C.ar    1  UNL1        0.0001
      6 C          63.3992   91.5086   10.3966 C.ar    1  UNL1        0.0009
      7 C          62.8576   90.6752   11.5201 C.ar    1  UNL1        0.0121
      8 C          63.6297   90.5489   12.7999 C.ar    1  UNL1        0.0578
      9 CL         63.0883   89.7155   13.9233 Cl      1  UNL1       -0.0822
     10 C          64.9434   91.2560   12.9562 C.ar    1  UNL1        0.0136
     11 C          65.7155   91.1297   14.2360 C.ar    1  UNL1        0.0377
     12 C          61.5441   89.9681   11.3637 C.ar    1  UNL1        0.0200
     13 C          60.3085   90.5315   12.0008 C.ar    1  UNL1        0.0989
     14 N          58.9949   89.8244   11.8445 N.ar    1  UNL1       -0.2423
     15 C          58.9168   88.5539   11.0510 C.ar    1  UNL1        0.0988
     16 C          60.1524   87.9904   10.4139 C.ar    1  UNL1        0.0192
     17 C          60.0743   86.7198    9.6205 C.ar    1  UNL1        0.0015
     18 C          61.3099   86.1564    8.9833 C.ar    1  UNL1        0.0000
     19 C          62.6235   86.8635    9.1397 C.ar    1  UNL1        0.0000
     20 C          62.7015   88.1340    9.9332 C.ar    1  UNL1        0.0001
     21 C          61.4660   88.6975   10.5703 C.ar    1  UNL1        0.0030
     22 C          68.8045   92.7598   16.0494 C.3     1  UNL1        0.2525
     23 O          67.8011   91.7105   15.6722 O.3     1  UNL1       -0.4714
@<TRIPOS>BOND
     1    22    23    1
     2    23     1    1
     3     1     2   ar
     4     2     3   ar
     5     3     4   ar
     6     4     5   ar
     7     5     6   ar
     8     6     7   ar
     9     7    12    1
    10    12    13   ar
    11    13    14   ar
    12    14    15   ar
    13    15    16   ar
    14    16    17   ar
    15    17    18   ar
    16    18    19   ar
    17    19    20   ar
    18    20    21   ar
    19     7     8   ar
    20     8     9    1
    21     8    10   ar
    22    10    11   ar
    23    11     1   ar
    24    10     4   ar
    25    21    12   ar
    26    21    16   ar
