@<TRIPOS>MOLECULE
*****
 23 26 0 0 0
SMALL
GASTEIGER

@<TRIPOS>ATOM
      1 O          64.5312   85.6980   15.5642 O.2     1  UNL1       -0.2666
      2 C          63.7920   85.6467   14.2600 C.2     1  UNL1        0.2834
      3 C          63.5759   86.9036   13.4704 C.ar    1  UNL1        0.1985
      4 N          63.9730   88.3280   13.7223 N.ar    1  UNL1       -0.2227
      5 C          63.4792   89.1570   12.5739 C.ar    1  UNL1        0.0988
      6 C          63.5783   90.6245   12.2797 C.ar    1  UNL1        0.0206
      7 C          62.9752   91.1799   11.0237 C.ar    1  UNL1        0.0016
      8 C          62.2729   90.2679   10.0619 C.ar    1  UNL1        0.0054
      9 C          62.1738   88.8004   10.3561 C.ar    1  UNL1        0.0887
     10 C          62.7770   88.2450   11.6121 C.ar    1  UNL1        0.0829
     11 N          62.8367   86.8523   12.1662 N.ar    1  UNL1       -0.3061
     12 C          62.3135   85.5441   11.6516 C.3     1  UNL1        0.1291
     13 C          62.5296   84.2872   12.4413 C.3     1  UNL1        0.1183
     14 N          63.2688   84.3384   13.7454 N.am    1  UNL1       -0.2716
     15 C          61.4715   87.8884    9.3943 C.3     1  UNL1        0.4200
     16 F          60.7692   86.9764    8.4326 F       1  UNL1       -0.1658
     17 F          62.7859   87.2693    9.0216 F       1  UNL1       -0.1658
     18 F          60.1570   88.5075    9.7671 F       1  UNL1       -0.1658
     19 C          63.4848   83.0815   14.5351 C.3     1  UNL1        0.0938
     20 C          62.8551   81.7962   14.0861 C.3     1  UNL1        0.0199
     21 C          61.4948   81.1783   14.2194 C.3     1  UNL1        0.0017
     22 C          61.9647   79.9786   13.4513 C.3     1  UNL1        0.0001
     23 C          63.3249   80.5965   13.3181 C.3     1  UNL1        0.0017
@<TRIPOS>BOND
     1     1     2    2
     2     2     3    1
     3     3     4   ar
     4     4     5   ar
     5     5     6   ar
     6     6     7   ar
     7     7     8   ar
     8     8     9   ar
     9     9    15    1
    10    15    16    1
    11    15    17    1
    12    15    18    1
    13     9    10   ar
    14    10    11   ar
    15    11    12    1
    16    12    13    1
    17    13    14    1
    18    14    19    1
    19    19    20    1
    20    20    21    1
    21    21    22    1
    22    22    23    1
    23    14     2   am
    24    23    20    1
    25    11     3   ar
    26    10     5   ar
@<TRIPOS>MOLECULE
*****
 23 26 0 0 0
SMALL
GASTEIGER

@<TRIPOS>ATOM
      1 O          60.5949   89.2196   12.6605 O.2     1  UNL1       -0.2666
      2 C          61.6517   89.9797   11.9152 C.2     1  UNL1        0.2834
      3 C          62.8202   90.5606   12.6550 C.ar    1  UNL1        0.1985
      4 N          63.1965   90.5465   14.1069 N.ar    1  UNL1       -0.2227
      5 C          64.4858   91.2977   14.2590 C.ar    1  UNL1        0.0988
      6 C          65.3313   91.6080   15.4586 C.ar    1  UNL1        0.0206
      7 C          66.5973   92.3966   15.3001 C.ar    1  UNL1        0.0016
      8 C          67.0179   92.8751   13.9421 C.ar    1  UNL1        0.0054
      9 C          66.1725   92.5649   12.7426 C.ar    1  UNL1        0.0887
     10 C          64.9065   91.7762   12.9010 C.ar    1  UNL1        0.0829
     11 N          63.8770   91.3206   11.9097 N.ar    1  UNL1       -0.3061
     12 C          63.7654   91.4997   10.4246 C.3     1  UNL1        0.1291
     13 C          62.5970   90.9187    9.6848 C.3     1  UNL1        0.1183
     14 N          61.5401   90.1587   10.4301 N.am    1  UNL1       -0.2716
     15 C          66.5931   93.0433   11.3846 C.3     1  UNL1        0.4200
     16 F          67.0137   93.5218   10.0266 F       1  UNL1       -0.1658
     17 F          65.5314   94.1021   11.4288 F       1  UNL1       -0.1658
     18 F          67.6547   91.9846   11.3404 F       1  UNL1       -0.1658
     19 C          60.3717   89.5777    9.6903 C.3     1  UNL1        0.0938
     20 C          60.4529   88.1874    9.1332 C.3     1  UNL1        0.0199
     21 C          61.4590   87.0766    9.1962 C.3     1  UNL1        0.0017
     22 C          60.5678   86.2212    8.3453 C.3     1  UNL1        0.0001
     23 C          59.5618   87.3320    8.2823 C.3     1  UNL1        0.0017
@<TRIPOS>BOND
     1     1     2    2
     2     2     3    1
     3     3     4   ar
     4     4     5   ar
     5     5     6   ar
     6     6     7   ar
     7     7     8   ar
     8     8     9   ar
     9     9    15    1
    10    15    16    1
    11    15    17    1
    12    15    18    1
    13     9    10   ar
    14    10    11   ar
    15    11    12    1
    16    12    13    1
    17    13    14    1
    18    14    19    1
    19    19    20    1
    20    20    21    1
    21    21    22    1
    22    22    23    1
    23    14     2   am
    24    23    20    1
    25    11     3   ar
    26    10     5   ar
@<TRIPOS>MOLECULE
*****
 23 26 0 0 0
SMALL
GASTEIGER

@<TRIPOS>ATOM
      1 O          64.6340   83.6702   14.4367 O.2     1  UNL1       -0.2666
      2 C          63.9391   84.4624   13.3693 C.2     1  UNL1        0.2834
      3 C          63.8975   85.9595   13.4535 C.ar    1  UNL1        0.1985
      4 N          64.4481   86.9238   14.4619 N.ar    1  UNL1       -0.2227
      5 C          64.0935   88.3119   14.0178 C.ar    1  UNL1        0.0988
      6 C          64.3720   89.6590   14.6158 C.ar    1  UNL1        0.0206
      7 C          63.8808   90.8997   13.9308 C.ar    1  UNL1        0.0016
      8 C          63.1110   90.7934   12.6478 C.ar    1  UNL1        0.0054
      9 C          62.8325   89.4463   12.0498 C.ar    1  UNL1        0.0887
     10 C          63.3237   88.2056   12.7348 C.ar    1  UNL1        0.0829
     11 N          63.2026   86.7517   12.3860 N.ar    1  UNL1       -0.3061
     12 C          62.5493   86.0468   11.2344 C.3     1  UNL1        0.1291
     13 C          62.5909   84.5497   11.1502 C.3     1  UNL1        0.1183
     14 N          63.2858   83.7575   12.2176 N.am    1  UNL1       -0.2716
     15 C          62.0627   89.3399   10.7668 C.3     1  UNL1        0.4200
     16 F          61.2929   89.2336    9.4838 F       1  UNL1       -0.1658
     17 F          60.8632   88.8561   11.5265 F       1  UNL1       -0.1658
     18 F          63.2621   89.8238   10.0070 F       1  UNL1       -0.1658
     19 C          63.3274   82.2605   12.1334 C.3     1  UNL1        0.0938
     20 C          62.4314   81.4349   13.0083 C.3     1  UNL1        0.0199
     21 C          61.4925   81.7272   14.1411 C.3     1  UNL1        0.0017
     22 C          61.1642   80.2673   14.2457 C.3     1  UNL1        0.0001
     23 C          62.1030   79.9750   13.1130 C.3     1  UNL1        0.0017
@<TRIPOS>BOND
     1     1     2    2
     2     2     3    1
     3     3     4   ar
     4     4     5   ar
     5     5     6   ar
     6     6     7   ar
     7     7     8   ar
     8     8     9   ar
     9     9    15    1
    10    15    16    1
    11    15    17    1
    12    15    18    1
    13     9    10   ar
    14    10    11   ar
    15    11    12    1
    16    12    13    1
    17    13    14    1
    18    14    19    1
    19    19    20    1
    20    20    21    1
    21    21    22    1
    22    22    23    1
    23    14     2   am
    24    23    20    1
    25    11     3   ar
    26    10     5   ar
@<TRIPOS>MOLECULE
*****
 23 26 0 0 0
SMALL
GASTEIGER

@<TRIPOS>ATOM
      1 O          62.7130   83.5891   11.7301 O.2     1  UNL1       -0.2666
      2 C          63.2090   84.7112   12.5932 C.2     1  UNL1        0.2834
      3 C          63.0165   86.1337   12.1580 C.ar    1  UNL1        0.1985
      4 N          62.3794   86.7331   10.9394 N.ar    1  UNL1       -0.2227
      5 C          62.4817   88.2255   11.0494 C.ar    1  UNL1        0.0988
      6 C          62.0276   89.3321   10.1443 C.ar    1  UNL1        0.0206
      7 C          62.2738   90.7617   10.5258 C.ar    1  UNL1        0.0016
      8 C          62.9741   91.0847   11.8123 C.ar    1  UNL1        0.0054
      9 C          63.4281   89.9782   12.7175 C.ar    1  UNL1        0.0887
     10 C          63.1819   88.5486   12.3360 C.ar    1  UNL1        0.0829
     11 N          63.5124   87.2557   13.0211 N.ar    1  UNL1       -0.3061
     12 C          64.2009   86.9553   14.3194 C.3     1  UNL1        0.1291
     13 C          64.3935   85.5327   14.7546 C.3     1  UNL1        0.1183
     14 N          63.8975   84.4107   13.8915 N.am    1  UNL1       -0.2716
     15 C          64.1284   90.3012   14.0040 C.3     1  UNL1        0.4200
     16 F          64.8286   90.6243   15.2906 F       1  UNL1       -0.1658
     17 F          65.3590   90.6860   13.2376 F       1  UNL1       -0.1658
     18 F          62.8977   89.9164   14.7705 F       1  UNL1       -0.1658
     19 C          64.0901   82.9882   14.3267 C.3     1  UNL1        0.0938
     20 C          63.0104   81.9762   14.0816 C.3     1  UNL1        0.0199
     21 C          61.5514   81.8795   14.4165 C.3     1  UNL1        0.0017
     22 C          61.4834   80.5450   13.7349 C.3     1  UNL1        0.0001
     23 C          62.9423   80.6417   13.4001 C.3     1  UNL1        0.0017
@<TRIPOS>BOND
     1     1     2    2
     2     2     3    1
     3     3     4   ar
     4     4     5   ar
     5     5     6   ar
     6     6     7   ar
     7     7     8   ar
     8     8     9   ar
     9     9    15    1
    10    15    16    1
    11    15    17    1
    12    15    18    1
    13     9    10   ar
    14    10    11   ar
    15    11    12    1
    16    12    13    1
    17    13    14    1
    18    14    19    1
    19    19    20    1
    20    20    21    1
    21    21    22    1
    22    22    23    1
    23    14     2   am
    24    23    20    1
    25    11     3   ar
    26    10     5   ar
@<TRIPOS>MOLECULE
*****
 23 26 0 0 0
SMALL
GASTEIGER

@<TRIPOS>ATOM
      1 O          63.4402   92.1293   12.7972 O.2     1  UNL1       -0.2666
      2 C          63.4629   90.6296   12.8091 C.2     1  UNL1        0.2834
      3 C          62.7053   89.8597   11.7683 C.ar    1  UNL1        0.1985
      4 N          61.8538   90.3011   10.6150 N.ar    1  UNL1       -0.2227
      5 C          61.3503   89.0742    9.9142 C.ar    1  UNL1        0.0988
      6 C          60.4697   88.8945    8.7133 C.ar    1  UNL1        0.0206
      7 C          60.1293   87.5150    8.2326 C.ar    1  UNL1        0.0016
      8 C          60.6697   86.3152    8.9527 C.ar    1  UNL1        0.0054
      9 C          61.5503   86.4950   10.1536 C.ar    1  UNL1        0.0887
     10 C          61.8907   87.8744   10.6343 C.ar    1  UNL1        0.0829
     11 N          62.7281   88.3599   11.7802 N.ar    1  UNL1       -0.3061
     12 C          63.5084   87.6300   12.8329 C.3     1  UNL1        0.1291
     13 C          64.2660   88.3999   13.8738 C.3     1  UNL1        0.1183
     14 N          64.2433   89.8997   13.8619 N.am    1  UNL1       -0.2716
     15 C          62.0907   85.2952   10.8737 C.3     1  UNL1        0.4200
     16 F          62.6310   84.0954   11.5938 F       1  UNL1       -0.1658
     17 F          62.9313   84.9564    9.6785 F       1  UNL1       -0.1658
     18 F          61.2500   85.6340   12.0689 F       1  UNL1       -0.1658
     19 C          65.0008   90.6696   14.9027 C.3     1  UNL1        0.0938
     20 C          66.3100   91.3135   14.5544 C.3     1  UNL1        0.0199
     21 C          66.9017   91.9085   13.3110 C.3     1  UNL1        0.0017
     22 C          68.1614   92.2243   14.0618 C.3     1  UNL1        0.0001
     23 C          67.5697   91.6293   15.3050 C.3     1  UNL1        0.0017
@<TRIPOS>BOND
     1     1     2    2
     2     2     3    1
     3     3     4   ar
     4     4     5   ar
     5     5     6   ar
     6     6     7   ar
     7     7     8   ar
     8     8     9   ar
     9     9    15    1
    10    15    16    1
    11    15    17    1
    12    15    18    1
    13     9    10   ar
    14    10    11   ar
    15    11    12    1
    16    12    13    1
    17    13    14    1
    18    14    19    1
    19    19    20    1
    20    20    21    1
    21    21    22    1
    22    22    23    1
    23    14     2   am
    24    23    20    1
    25    11     3   ar
    26    10     5   ar
@<TRIPOS>MOLECULE
*****
 23 26 0 0 0
SMALL
GASTEIGER

@<TRIPOS>ATOM
      1 O          64.1257   86.1639   14.3587 O.2     1  UNL1       -0.2666
      2 C          63.3880   85.7462   13.1213 C.2     1  UNL1        0.2834
      3 C          62.7578   86.7820   12.2382 C.ar    1  UNL1        0.1985
      4 N          62.6988   88.2780   12.3302 N.ar    1  UNL1       -0.2227
      5 C          61.9246   88.7849   11.1496 C.ar    1  UNL1        0.0988
      6 C          61.5474   90.1706   10.7167 C.ar    1  UNL1        0.0206
      7 C          60.7508   90.3736    9.4621 C.ar    1  UNL1        0.0016
      8 C          60.3313   89.1908    8.6404 C.ar    1  UNL1        0.0054
      9 C          60.7085   87.8051    9.0733 C.ar    1  UNL1        0.0887
     10 C          61.5051   87.6022   10.3279 C.ar    1  UNL1        0.0829
     11 N          62.0201   86.3643   11.0007 N.ar    1  UNL1       -0.3061
     12 C          61.9125   84.9108   10.6464 C.3     1  UNL1        0.1291
     13 C          62.5427   83.8749   11.5295 C.3     1  UNL1        0.1183
     14 N          63.2804   84.2926   12.7670 N.am    1  UNL1       -0.2716
     15 C          60.2890   86.6224    8.2517 C.3     1  UNL1        0.4200
     16 F          59.8696   85.4396    7.4300 F       1  UNL1       -0.1658
     17 F          58.8580   86.8684    8.6281 F       1  UNL1       -0.1658
     18 F          61.7200   86.3764    7.8752 F       1  UNL1       -0.1658
     19 C          63.9106   83.2567   13.6501 C.3     1  UNL1        0.0938
     20 C          63.2637   81.9129   13.8093 C.3     1  UNL1        0.0199
     21 C          63.6981   80.4939   13.5903 C.3     1  UNL1        0.0017
     22 C          62.3487   80.0123   14.0345 C.3     1  UNL1        0.0001
     23 C          61.9144   81.4312   14.2535 C.3     1  UNL1        0.0017
@<TRIPOS>BOND
     1     1     2    2
     2     2     3    1
     3     3     4   ar
     4     4     5   ar
     5     5     6   ar
     6     6     7   ar
     7     7     8   ar
     8     8     9   ar
     9     9    15    1
    10    15    16    1
    11    15    17    1
    12    15    18    1
    13     9    10   ar
    14    10    11   ar
    15    11    12    1
    16    12    13    1
    17    13    14    1
    18    14    19    1
    19    19    20    1
    20    20    21    1
    21    21    22    1
    22    22    23    1
    23    14     2   am
    24    23    20    1
    25    11     3   ar
    26    10     5   ar
@<TRIPOS>MOLECULE
*****
 23 26 0 0 0
SMALL
GASTEIGER

@<TRIPOS>ATOM
      1 O          64.7637   89.6749   15.1646 O.2     1  UNL1       -0.2666
      2 C          64.1120   89.2133   13.8949 C.2     1  UNL1        0.2834
      3 C          63.8667   87.7512   13.6662 C.ar    1  UNL1        0.1985
      4 N          64.1566   86.5417   14.5046 N.ar    1  UNL1       -0.2227
      5 C          63.6840   85.3326   13.7531 C.ar    1  UNL1        0.0988
      6 C          63.7085   83.8704   14.0869 C.ar    1  UNL1        0.0206
      7 C          63.1510   82.8705   13.1177 C.ar    1  UNL1        0.0016
      8 C          62.5690   83.3328   11.8147 C.ar    1  UNL1        0.0054
      9 C          62.5446   84.7950   11.4810 C.ar    1  UNL1        0.0887
     10 C          63.1021   85.7948   12.4501 C.ar    1  UNL1        0.0829
     11 N          63.2150   87.2896   12.3965 N.ar    1  UNL1       -0.3061
     12 C          62.8086   88.2901   11.3554 C.3     1  UNL1        0.1291
     13 C          63.0539   89.7522   11.5841 C.3     1  UNL1        0.1183
     14 N          63.7056   90.2137   12.8538 N.am    1  UNL1       -0.2716
     15 C          61.9627   85.2572   10.1780 C.3     1  UNL1        0.4200
     16 F          61.3808   85.7195    8.8751 F       1  UNL1       -0.1658
     17 F          60.8040   85.8654   10.9113 F       1  UNL1       -0.1658
     18 F          63.1214   84.6491    9.4448 F       1  UNL1       -0.1658
     19 C          63.9508   91.6758   13.0825 C.3     1  UNL1        0.0938
     20 C          65.0121   92.3898   12.2990 C.3     1  UNL1        0.0199
     21 C          66.2202   93.2070   12.6495 C.3     1  UNL1        0.0017
     22 C          66.5130   93.3995   11.1910 C.3     1  UNL1        0.0001
     23 C          65.3051   92.5823   10.8406 C.3     1  UNL1        0.0017
@<TRIPOS>BOND
     1     1     2    2
     2     2     3    1
     3     3     4   ar
     4     4     5   ar
     5     5     6   ar
     6     6     7   ar
     7     7     8   ar
     8     8     9   ar
     9     9    15    1
    10    15    16    1
    11    15    17    1
    12    15    18    1
    13     9    10   ar
    14    10    11   ar
    15    11    12    1
    16    12    13    1
    17    13    14    1
    18    14    19    1
    19    19    20    1
    20    20    21    1
    21    21    22    1
    22    22    23    1
    23    14     2   am
    24    23    20    1
    25    11     3   ar
    26    10     5   ar
@<TRIPOS>MOLECULE
*****
 23 26 0 0 0
SMALL
GASTEIGER

@<TRIPOS>ATOM
      1 O          61.8792   88.2066    9.4775 O.2     1  UNL1       -0.2666
      2 C          62.4605   87.9235   10.8310 C.2     1  UNL1        0.2834
      3 C          62.5783   86.5089   11.3158 C.ar    1  UNL1        0.1985
      4 N          62.2089   85.1983   10.6868 N.ar    1  UNL1       -0.2227
      5 C          62.5618   84.1052   11.6514 C.ar    1  UNL1        0.0988
      6 C          62.4241   82.6137   11.5725 C.ar    1  UNL1        0.0206
      7 C          62.8740   81.7572   12.7188 C.ar    1  UNL1        0.0016
      8 C          63.4616   82.3923   13.9441 C.ar    1  UNL1        0.0054
      9 C          63.5994   83.8839   14.0230 C.ar    1  UNL1        0.0887
     10 C          63.1495   84.7403   12.8767 C.ar    1  UNL1        0.0829
     11 N          63.1596   86.2259   12.6693 N.ar    1  UNL1       -0.3061
     12 C          63.6231   87.3574   13.5380 C.3     1  UNL1        0.1291
     13 C          63.5053   88.7721   13.0532 C.3     1  UNL1        0.1183
     14 N          62.9240   89.0551   11.6997 N.am    1  UNL1       -0.2716
     15 C          64.1870   84.5190   15.2483 C.3     1  UNL1        0.4200
     16 F          64.7746   85.1541   16.4736 F       1  UNL1       -0.1658
     17 F          62.8796   84.3485   15.9637 F       1  UNL1       -0.1658
     18 F          65.4944   84.6895   14.5330 F       1  UNL1       -0.1658
     19 C          62.8062   90.4697   11.2149 C.3     1  UNL1        0.0938
     20 C          63.9447   91.4267   11.4099 C.3     1  UNL1        0.0199
     21 C          64.7454   91.8965   12.5881 C.3     1  UNL1        0.0017
     22 C          65.5548   92.7799   11.6856 C.3     1  UNL1        0.0001
     23 C          64.7542   92.3100   10.5075 C.3     1  UNL1        0.0017
@<TRIPOS>BOND
     1     1     2    2
     2     2     3    1
     3     3     4   ar
     4     4     5   ar
     5     5     6   ar
     6     6     7   ar
     7     7     8   ar
     8     8     9   ar
     9     9    15    1
    10    15    16    1
    11    15    17    1
    12    15    18    1
    13     9    10   ar
    14    10    11   ar
    15    11    12    1
    16    12    13    1
    17    13    14    1
    18    14    19    1
    19    19    20    1
    20    20    21    1
    21    21    22    1
    22    22    23    1
    23    14     2   am
    24    23    20    1
    25    11     3   ar
    26    10     5   ar
@<TRIPOS>MOLECULE
*****
 23 26 0 0 0
SMALL
GASTEIGER

@<TRIPOS>ATOM
      1 O          63.2732   86.2748   17.2036 O.2     1  UNL1       -0.2666
      2 C          63.4067   86.1888   15.7120 C.2     1  UNL1        0.2834
      3 C          63.2046   84.8758   15.0154 C.ar    1  UNL1        0.1985
      4 N          62.8681   83.5077   15.5302 N.ar    1  UNL1       -0.2227
      5 C          62.7936   82.5762   14.3569 C.ar    1  UNL1        0.0988
      6 C          62.4989   81.1089   14.2574 C.ar    1  UNL1        0.0206
      7 C          62.4945   80.4339   12.9179 C.ar    1  UNL1        0.0016
      8 C          62.7850   81.2263   11.6778 C.ar    1  UNL1        0.0054
      9 C          63.0798   82.6937   11.7773 C.ar    1  UNL1        0.0887
     10 C          63.0841   83.3686   13.1168 C.ar    1  UNL1        0.0829
     11 N          63.3381   84.7898   13.5238 N.ar    1  UNL1       -0.3061
     12 C          63.6736   86.0168   12.7289 C.3     1  UNL1        0.1291
     13 C          63.8757   87.3298   13.4255 C.3     1  UNL1        0.1183
     14 N          63.7423   87.4158   14.9171 N.am    1  UNL1       -0.2716
     15 C          63.3702   83.4860   10.5372 C.3     1  UNL1        0.4200
     16 F          63.6607   84.2784    9.2972 F       1  UNL1       -0.1658
     17 F          64.6713   82.7572   10.3762 F       1  UNL1       -0.1658
     18 F          62.0691   84.2149   10.6982 F       1  UNL1       -0.1658
     19 C          63.9444   88.7287   15.6138 C.3     1  UNL1        0.0938
     20 C          64.3781   89.9334   14.8324 C.3     1  UNL1        0.0199
     21 C          65.6487   90.7226   14.7184 C.3     1  UNL1        0.0017
     22 C          64.9916   91.6371   13.7274 C.3     1  UNL1        0.0001
     23 C          63.7212   90.8479   13.8414 C.3     1  UNL1        0.0017
@<TRIPOS>BOND
     1     1     2    2
     2     2     3    1
     3     3     4   ar
     4     4     5   ar
     5     5     6   ar
     6     6     7   ar
     7     7     8   ar
     8     8     9   ar
     9     9    15    1
    10    15    16    1
    11    15    17    1
    12    15    18    1
    13     9    10   ar
    14    10    11   ar
    15    11    12    1
    16    12    13    1
    17    13    14    1
    18    14    19    1
    19    19    20    1
    20    20    21    1
    21    21    22    1
    22    22    23    1
    23    14     2   am
    24    23    20    1
    25    11     3   ar
    26    10     5   ar
