@<TRIPOS>MOLECULE
*****
 18 19 0 0 0
SMALL
GASTEIGER

@<TRIPOS>ATOM
      1 C          64.3388   91.5187   12.4045 C.2     1  UNL1        0.0033
      2 C          65.3228   92.3448   11.6303 C.2     1  UNL1        0.0435
      3 C          61.6651   88.6051   10.2568 C.ar    1  UNL1        0.1387
      4 C          61.8429   89.9949    9.7214 C.ar    1  UNL1        0.0369
      5 C          62.7341   90.9661   10.4373 C.ar    1  UNL1        0.0031
      6 C          63.4476   90.5475   11.6886 C.ar    1  UNL1        0.0003
      7 C          63.2698   89.1576   12.2239 C.ar    1  UNL1        0.0031
      8 C          62.3786   88.1864   11.5080 C.ar    1  UNL1        0.0369
      9 C          59.8576   88.1163    8.4557 C.3     1  UNL1        0.2525
     10 O          60.7739   87.6339    9.5409 O.3     1  UNL1       -0.4714
     11 C          66.2140   93.3160   12.3462 C.2     1  UNL1        0.2111
     12 O          66.5429   94.6369   11.7162 O.2     1  UNL1       -0.2850
     13 C          66.7762   92.9662   13.6922 C.ar    1  UNL1        0.0961
     14 C          67.7449   91.8582   13.9823 C.ar    1  UNL1        0.0218
     15 C          68.0359   91.8702   15.4537 C.ar    1  UNL1        0.0200
     16 C          67.2470   92.9857   16.0731 C.ar    1  UNL1        0.0725
     17 N          66.4685   93.6630   14.9844 N.ar    1  UNL1       -0.3495
     18 H          65.8621   94.4302   15.0980 H       1  UNL1        0.1661
@<TRIPOS>BOND
     1     9    10    1
     2    10     3    1
     3     3     4   ar
     4     4     5   ar
     5     5     6   ar
     6     6     1    1
     7     1     2    2
     8     2    11    1
     9    11    12    2
    10    11    13    1
    11    13    14   ar
    12    14    15   ar
    13    15    16   ar
    14    16    17   ar
    15     6     7   ar
    16     7     8   ar
    17     8     3   ar
    18    17    13   ar
    19    17    18    1
@<TRIPOS>MOLECULE
*****
 18 19 0 0 0
SMALL
GASTEIGER

@<TRIPOS>ATOM
      1 C          62.5539   84.8741   11.4275 C.2     1  UNL1        0.0033
      2 C          63.1784   85.1306   12.7669 C.2     1  UNL1        0.0435
      3 C          60.7666   88.2782    9.0892 C.ar    1  UNL1        0.1387
      4 C          61.5592   88.5565   10.3319 C.ar    1  UNL1        0.0369
      5 C          62.1550   87.4218   11.1113 C.ar    1  UNL1        0.0031
      6 C          61.9581   86.0088   10.6481 C.ar    1  UNL1        0.0003
      7 C          61.1655   85.7305    9.4054 C.ar    1  UNL1        0.0031
      8 C          60.5697   86.8652    8.6260 C.ar    1  UNL1        0.0369
      9 C          59.3615   89.1335    7.0782 C.3     1  UNL1        0.2525
     10 O          60.1708   89.4129    8.3098 O.3     1  UNL1       -0.4714
     11 C          63.7742   83.9958   13.5463 C.2     1  UNL1        0.2111
     12 O          65.0638   84.1904   14.2872 O.2     1  UNL1       -0.2850
     13 C          63.0802   82.6665   13.5848 C.ar    1  UNL1        0.0961
     14 C          63.3726   81.4933   12.6971 C.ar    1  UNL1        0.0218
     15 C          62.4452   80.3787   13.0814 C.ar    1  UNL1        0.0200
     16 C          61.5797   80.8631   14.2067 C.ar    1  UNL1        0.0725
     17 N          61.9721   82.2771   14.5178 N.ar    1  UNL1       -0.3495
     18 H          61.5726   82.8490   15.2124 H       1  UNL1        0.1661
@<TRIPOS>BOND
     1     9    10    1
     2    10     3    1
     3     3     4   ar
     4     4     5   ar
     5     5     6   ar
     6     6     1    1
     7     1     2    2
     8     2    11    1
     9    11    12    2
    10    11    13    1
    11    13    14   ar
    12    14    15   ar
    13    15    16   ar
    14    16    17   ar
    15     6     7   ar
    16     7     8   ar
    17     8     3   ar
    18    17    13   ar
    19    17    18    1
@<TRIPOS>MOLECULE
*****
 18 19 0 0 0
SMALL
GASTEIGER

@<TRIPOS>ATOM
      1 C          62.7978   90.3168   12.1834 C.2     1  UNL1        0.0033
      2 C          62.3144   90.5469   10.7822 C.2     1  UNL1        0.0435
      3 C          66.6146   92.2405   13.5910 C.ar    1  UNL1        0.1387
      4 C          66.0245   92.6259   12.2670 C.ar    1  UNL1        0.0369
      5 C          64.7522   91.9847   11.7977 C.ar    1  UNL1        0.0031
      6 C          64.0701   90.9581   12.6526 C.ar    1  UNL1        0.0003
      7 C          64.6602   90.5727   13.9767 C.ar    1  UNL1        0.0031
      8 C          65.9325   91.2140   14.4459 C.ar    1  UNL1        0.0369
      9 C          67.9847   93.4202   15.4568 C.3     1  UNL1        0.2525
     10 O          67.8869   92.8818   14.0603 O.3     1  UNL1       -0.4714
     11 C          61.0421   89.9057   10.3130 C.2     1  UNL1        0.2111
     12 O          59.7431   90.6473   10.4242 O.2     1  UNL1       -0.2850
     13 C          61.0690   88.5228    9.7325 C.ar    1  UNL1        0.0961
     14 C          62.2541   87.6039    9.6980 C.ar    1  UNL1        0.0218
     15 C          61.8331   86.3292    9.0288 C.ar    1  UNL1        0.0200
     16 C          60.3877   86.4603    8.6497 C.ar    1  UNL1        0.0725
     17 N          59.9155   87.8159    9.0846 N.ar    1  UNL1       -0.3495
     18 H          59.0078   88.1782    8.9657 H       1  UNL1        0.1661
@<TRIPOS>BOND
     1     9    10    1
     2    10     3    1
     3     3     4   ar
     4     4     5   ar
     5     5     6   ar
     6     6     1    1
     7     1     2    2
     8     2    11    1
     9    11    12    2
    10    11    13    1
    11    13    14   ar
    12    14    15   ar
    13    15    16   ar
    14    16    17   ar
    15     6     7   ar
    16     7     8   ar
    17     8     3   ar
    18    17    13   ar
    19    17    18    1
@<TRIPOS>MOLECULE
*****
 18 19 0 0 0
SMALL
GASTEIGER

@<TRIPOS>ATOM
      1 C          62.3019   86.6803   11.1056 C.2     1  UNL1        0.0033
      2 C          61.9826   85.3402   11.6990 C.2     1  UNL1        0.0435
      3 C          59.6558   88.4115    7.9039 C.ar    1  UNL1        0.1387
      4 C          59.9081   86.9336    7.9504 C.ar    1  UNL1        0.0369
      5 C          60.7902   86.3566    9.0176 C.ar    1  UNL1        0.0031
      6 C          61.4199   87.2574   10.0384 C.ar    1  UNL1        0.0003
      7 C          61.1676   88.7352    9.9919 C.ar    1  UNL1        0.0031
      8 C          60.2855   89.3123    8.9246 C.ar    1  UNL1        0.0369
      9 C          59.3064   90.0433    5.9127 C.3     1  UNL1        0.2525
     10 O          58.7738   88.9886    6.8366 O.3     1  UNL1       -0.4714
     11 C          62.8647   84.7632   12.7663 C.2     1  UNL1        0.2111
     12 O          63.6127   85.6736   13.6944 O.2     1  UNL1       -0.2850
     13 C          62.9986   83.2756   12.9053 C.ar    1  UNL1        0.0961
     14 C          62.6069   82.2552   11.8780 C.ar    1  UNL1        0.0218
     15 C          62.9139   80.8963   12.4338 C.ar    1  UNL1        0.0200
     16 C          63.4955   81.0768   13.8047 C.ar    1  UNL1        0.0725
     17 N          63.5478   82.5473   14.0961 N.ar    1  UNL1       -0.3495
     18 H          63.8836   82.9616   14.9236 H       1  UNL1        0.1661
@<TRIPOS>BOND
     1     9    10    1
     2    10     3    1
     3     3     4   ar
     4     4     5   ar
     5     5     6   ar
     6     6     1    1
     7     1     2    2
     8     2    11    1
     9    11    12    2
    10    11    13    1
    11    13    14   ar
    12    14    15   ar
    13    15    16   ar
    14    16    17   ar
    15     6     7   ar
    16     7     8   ar
    17     8     3   ar
    18    17    13   ar
    19    17    18    1
@<TRIPOS>MOLECULE
*****
 18 19 0 0 0
SMALL
GASTEIGER

@<TRIPOS>ATOM
      1 C          62.3927   86.3419   11.3265 C.2     1  UNL1        0.0033
      2 C          62.5412   84.8513   11.4039 C.2     1  UNL1        0.0435
      3 C          59.7336   88.1786    8.1951 C.ar    1  UNL1        0.1387
      4 C          60.0081   86.7041    8.1750 C.ar    1  UNL1        0.0369
      5 C          60.8944   86.0919    9.2188 C.ar    1  UNL1        0.0031
      6 C          61.5064   86.9541   10.2827 C.ar    1  UNL1        0.0003
      7 C          61.2320   88.4287   10.3028 C.ar    1  UNL1        0.0031
      8 C          60.3456   89.0409    9.2590 C.ar    1  UNL1        0.0369
      9 C          59.4117   89.7785    6.1735 C.3     1  UNL1        0.2525
     10 O          58.8473   88.7909    7.1513 O.3     1  UNL1       -0.4714
     11 C          63.4276   84.2390   12.4477 C.2     1  UNL1        0.2111
     12 O          64.4146   83.1767   12.0642 O.2     1  UNL1       -0.2850
     13 C          63.3269   84.6892   13.8750 C.ar    1  UNL1        0.0961
     14 C          64.3388   85.5152   14.6125 C.ar    1  UNL1        0.0218
     15 C          63.8340   85.7289   16.0087 C.ar    1  UNL1        0.0200
     16 C          62.5100   85.0349   16.1342 C.ar    1  UNL1        0.0725
     17 N          62.1967   84.3924   14.8155 N.ar    1  UNL1       -0.3495
     18 H          61.3907   83.8680   14.6043 H       1  UNL1        0.1661
@<TRIPOS>BOND
     1     9    10    1
     2    10     3    1
     3     3     4   ar
     4     4     5   ar
     5     5     6   ar
     6     6     1    1
     7     1     2    2
     8     2    11    1
     9    11    12    2
    10    11    13    1
    11    13    14   ar
    12    14    15   ar
    13    15    16   ar
    14    16    17   ar
    15     6     7   ar
    16     7     8   ar
    17     8     3   ar
    18    17    13   ar
    19    17    18    1
@<TRIPOS>MOLECULE
*****
 18 19 0 0 0
SMALL
GASTEIGER

@<TRIPOS>ATOM
      1 C          64.5575   91.3267   14.3285 C.2     1  UNL1        0.0033
      2 C          65.9840   91.5477   13.9208 C.2     1  UNL1        0.0435
      3 C          63.3454   87.4489   16.2634 C.ar    1  UNL1        0.1387
      4 C          63.0116   88.7534   16.9243 C.ar    1  UNL1        0.0369
      5 C          63.4157   90.0460   16.2794 C.ar    1  UNL1        0.0031
      6 C          64.1535   90.0341   14.9735 C.ar    1  UNL1        0.0003
      7 C          64.4872   88.7296   14.3125 C.ar    1  UNL1        0.0031
      8 C          64.0832   87.4370   14.9575 C.ar    1  UNL1        0.0369
      9 C          62.8344   84.9080   16.0837 C.3     1  UNL1        0.2525
     10 O          62.9414   86.1563   16.9083 O.3     1  UNL1       -0.4714
     11 C          66.3880   92.8403   13.2758 C.2     1  UNL1        0.2111
     12 O          66.2177   94.1334   14.0165 O.2     1  UNL1       -0.2850
     13 C          66.9624   92.8397   11.8901 C.ar    1  UNL1        0.0961
     14 C          66.4272   93.6008   10.7135 C.ar    1  UNL1        0.0218
     15 C          67.3067   93.3094    9.5339 C.ar    1  UNL1        0.0200
     16 C          68.3856   92.3681    9.9815 C.ar    1  UNL1        0.0725
     17 N          68.1727   92.0778   11.4377 N.ar    1  UNL1       -0.3495
     18 H          68.7296   91.4904   11.9981 H       1  UNL1        0.1661
@<TRIPOS>BOND
     1     9    10    1
     2    10     3    1
     3     3     4   ar
     4     4     5   ar
     5     5     6   ar
     6     6     1    1
     7     1     2    2
     8     2    11    1
     9    11    12    2
    10    11    13    1
    11    13    14   ar
    12    14    15   ar
    13    15    16   ar
    14    16    17   ar
    15     6     7   ar
    16     7     8   ar
    17     8     3   ar
    18    17    13   ar
    19    17    18    1
@<TRIPOS>MOLECULE
*****
 18 19 0 0 0
SMALL
GASTEIGER

@<TRIPOS>ATOM
      1 C          62.5960   86.1856   11.6828 C.2     1  UNL1        0.0033
      2 C          61.2510   86.6233   11.1834 C.2     1  UNL1        0.0435
      3 C          63.1189   82.0697   13.4252 C.ar    1  UNL1        0.1387
      4 C          62.9961   82.2456   11.9406 C.ar    1  UNL1        0.0369
      5 C          62.8218   83.6176   11.3599 C.ar    1  UNL1        0.0031
      6 C          62.7703   84.8136   12.2636 C.ar    1  UNL1        0.0003
      7 C          62.8931   84.6377   13.7481 C.ar    1  UNL1        0.0031
      8 C          63.0674   83.2657   14.3289 C.ar    1  UNL1        0.0369
      9 C          62.3116   79.6129   13.6751 C.3     1  UNL1        0.2525
     10 O          63.2932   80.6977   14.0059 O.3     1  UNL1       -0.4714
     11 C          61.0767   87.9952   10.6026 C.2     1  UNL1        0.2111
     12 O          61.6266   89.1902   11.3234 O.2     1  UNL1       -0.2850
     13 C          60.3524   88.1722    9.3010 C.ar    1  UNL1        0.0961
     14 C          59.6043   87.1064    8.5563 C.ar    1  UNL1        0.0218
     15 C          59.0385   87.7215    7.3107 C.ar    1  UNL1        0.0200
     16 C          59.4370   89.1674    7.2855 C.ar    1  UNL1        0.0725
     17 N          60.2490   89.4459    8.5156 N.ar    1  UNL1       -0.3495
     18 H          60.6446   90.3126    8.7639 H       1  UNL1        0.1661
@<TRIPOS>BOND
     1     9    10    1
     2    10     3    1
     3     3     4   ar
     4     4     5   ar
     5     5     6   ar
     6     6     1    1
     7     1     2    2
     8     2    11    1
     9    11    12    2
    10    11    13    1
    11    13    14   ar
    12    14    15   ar
    13    15    16   ar
    14    16    17   ar
    15     6     7   ar
    16     7     8   ar
    17     8     3   ar
    18    17    13   ar
    19    17    18    1
@<TRIPOS>MOLECULE
*****
 18 19 0 0 0
SMALL
GASTEIGER

@<TRIPOS>ATOM
      1 C          62.5540   86.1751   11.5712 C.2     1  UNL1        0.0033
      2 C          61.2008   86.6260   11.1073 C.2     1  UNL1        0.0435
      3 C          63.0772   82.0634   13.3236 C.ar    1  UNL1        0.1387
      4 C          62.8530   83.2404   14.2261 C.ar    1  UNL1        0.0369
      5 C          62.6786   84.6109   13.6420 C.ar    1  UNL1        0.0031
      6 C          62.7284   84.8045   12.1554 C.ar    1  UNL1        0.0003
      7 C          62.9526   83.6276   11.2529 C.ar    1  UNL1        0.0031
      8 C          63.1270   82.2570   11.8370 C.ar    1  UNL1        0.0369
      9 C          62.2638   79.6102   13.5884 C.3     1  UNL1        0.2525
     10 O          63.2516   80.6929   13.9078 O.3     1  UNL1       -0.4714
     11 C          61.0264   87.9965   10.5232 C.2     1  UNL1        0.2111
     12 O          59.9744   88.2398    9.4820 O.2     1  UNL1       -0.2850
     13 C          61.9040   89.1239   10.9803 C.ar    1  UNL1        0.0961
     14 C          62.6247   90.0956   10.0935 C.ar    1  UNL1        0.0218
     15 C          63.3812   91.0497   10.9695 C.ar    1  UNL1        0.0200
     16 C          63.1280   90.6676   12.3978 C.ar    1  UNL1        0.0725
     17 N          62.2151   89.4774   12.4045 N.ar    1  UNL1       -0.3495
     18 H          61.8790   89.0103   13.2033 H       1  UNL1        0.1661
@<TRIPOS>BOND
     1     9    10    1
     2    10     3    1
     3     3     4   ar
     4     4     5   ar
     5     5     6   ar
     6     6     1    1
     7     1     2    2
     8     2    11    1
     9    11    12    2
    10    11    13    1
    11    13    14   ar
    12    14    15   ar
    13    15    16   ar
    14    16    17   ar
    15     6     7   ar
    16     7     8   ar
    17     8     3   ar
    18    17    13   ar
    19    17    18    1
@<TRIPOS>MOLECULE
*****
 18 19 0 0 0
SMALL
GASTEIGER

@<TRIPOS>ATOM
      1 C          59.0289   89.1132    6.6654 C.2     1  UNL1        0.0033
      2 C          59.3054   90.5655    6.4124 C.2     1  UNL1        0.0435
      3 C          60.8628   87.0605   10.2254 C.ar    1  UNL1        0.1387
      4 C          60.6612   88.5468   10.2382 C.ar    1  UNL1        0.0369
      5 C          60.0499   89.2310    9.0516 C.ar    1  UNL1        0.0031
      6 C          59.6402   88.4289    7.8521 C.ar    1  UNL1        0.0003
      7 C          59.8418   86.9426    7.8393 C.ar    1  UNL1        0.0031
      8 C          60.4531   86.2584    9.0259 C.ar    1  UNL1        0.0369
      9 C          62.2709   85.1193   11.2249 C.3     1  UNL1        0.2525
     10 O          61.4741   86.3763   11.4121 O.3     1  UNL1       -0.4714
     11 C          58.6941   91.2498    5.2257 C.2     1  UNL1        0.2111
     12 O          57.2024   91.3458    5.1015 O.2     1  UNL1       -0.2850
     13 C          59.5747   91.8380    4.1632 C.ar    1  UNL1        0.0961
     14 C          61.0706   91.7439    4.1062 C.ar    1  UNL1        0.0218
     15 C          61.5344   92.4712    2.8790 C.ar    1  UNL1        0.0200
     16 C          60.3249   93.0149    2.1777 C.ar    1  UNL1        0.0725
     17 N          59.1138   92.6235    2.9714 N.ar    1  UNL1       -0.3495
     18 H          58.1803   92.8435    2.7491 H       1  UNL1        0.1661
@<TRIPOS>BOND
     1     9    10    1
     2    10     3    1
     3     3     4   ar
     4     4     5   ar
     5     5     6   ar
     6     6     1    1
     7     1     2    2
     8     2    11    1
     9    11    12    2
    10    11    13    1
    11    13    14   ar
    12    14    15   ar
    13    15    16   ar
    14    16    17   ar
    15     6     7   ar
    16     7     8   ar
    17     8     3   ar
    18    17    13   ar
    19    17    18    1
