@<TRIPOS>MOLECULE
*****
 36 41 0 0 0
SMALL
GASTEIGER

@<TRIPOS>ATOM
      1 C          63.7080   84.4753   13.8568 C.2     1  UNL1        0.1558
      2 N          64.4999   84.9559   15.0366 N.2     1  UNL1       -0.2402
      3 C          64.5669   86.4530   14.9711 C.2     1  UNL1        0.0929
      4 C          63.8165   86.8976   13.7508 C.2     1  UNL1        0.0093
      5 C          63.2856   85.6754   13.0621 C.3     1  UNL1        0.1374
      6 N          62.4863   85.8130   11.8003 N.pl3   1  UNL1       -0.3295
      7 C          62.2177   87.1730   11.2272 C.2     1  UNL1        0.0215
      8 C          62.7485   88.3953   11.9159 C.2     1  UNL1        0.0322
      9 C          62.4800   89.7552   11.3429 C.2     1  UNL1        0.1707
     10 O          63.0108   90.9775   12.0316 O.2     1  UNL1       -0.2916
     11 C          61.6806   89.8929   10.0811 C.3     1  UNL1        0.0693
     12 C          61.1498   88.6706    9.3925 C.3     1  UNL1        0.0141
     13 C          61.4183   87.3107    9.9655 C.3     1  UNL1        0.0411
     14 C          63.5479   88.2576   13.1777 C.3     1  UNL1        0.1049
     15 H          62.1379   85.0108   11.3483 H       1  UNL1        0.1471
     16 C          64.0788   89.4798   13.8664 C.ar    1  UNL1        0.1312
     17 C          63.6342   90.0037   15.1998 C.ar    1  UNL1        0.0373
     18 C          64.4280   91.2405   15.5001 C.ar    1  UNL1        0.0472
     19 C          65.3633   91.4810   14.3523 C.ar    1  UNL1        0.1774
     20 O          65.1474   90.3929   13.3426 O.2     1  UNL1       -0.4506
     21 S          66.3424   92.6112   14.2348 S.3     1  UNL1       -0.0117
     22 C          66.5477   93.2913   12.9138 C.2     1  UNL1        0.1967
     23 N          66.0796   94.6690   12.5492 N.2     1  UNL1       -0.2196
     24 C          66.4998   94.9424   11.1354 C.2     1  UNL1        0.0985
     25 C          66.3136   96.1358   10.2459 C.2     1  UNL1        0.0201
     26 C          66.8554   96.1204    8.8472 C.2     1  UNL1       -0.0014
     27 C          67.5832   94.9117    8.3381 C.2     1  UNL1       -0.0042
     28 C          67.7693   93.7184    9.2275 C.3     1  UNL1        0.1432
     29 CL         68.4972   92.5096    8.7183 Cl      1  UNL1       -0.1036
     30 C          67.2276   93.7337   10.6262 C.2     1  UNL1        0.0977
     31 N          67.2572   92.7133   11.7253 N.2     1  UNL1       -0.2222
     32 C          63.3937   83.0457   13.5291 C.2     1  UNL1        0.3569
     33 O          63.7702   81.9561   14.4887 O.2     1  UNL1       -0.2435
     34 O          62.7028   82.7057   12.2418 O.3     1  UNL1       -0.4446
     35 C          64.2709   83.0921   10.2066 C.3     1  UNL1        0.0513
     36 C          63.4919   82.1614   11.0881 C.3     1  UNL1        0.2089
@<TRIPOS>BOND
     1    35    36    1
     2    36    34    1
     3    34    32    1
     4    32    33    2
     5    32     1    1
     6     1     2    2
     7     2     3    1
     8     3     4    2
     9     4     5    1
    10     5     6    1
    11     6     7    1
    12     7     8    2
    13     8     9    1
    14     9    10    2
    15     9    11    1
    16    11    12    1
    17    12    13    1
    18     8    14    1
    19    14    16    1
    20    16    17   ar
    21    17    18   ar
    22    18    19   ar
    23    19    21    1
    24    21    22    1
    25    22    23    2
    26    23    24    1
    27    24    25    2
    28    25    26    1
    29    26    27    2
    30    27    28    1
    31    28    29    1
    32    28    30    1
    33    30    31    2
    34    19    20   ar
    35     5     1    1
    36    13     7    1
    37    20    16   ar
    38    14     4    1
    39    31    22    1
    40    30    24    1
    41     6    15    1
@<TRIPOS>MOLECULE
*****
 36 41 0 0 0
SMALL
GASTEIGER

@<TRIPOS>ATOM
      1 C          60.8182   88.1619    9.4607 C.2     1  UNL1        0.1558
      2 N          60.9069   89.6527    9.6016 N.2     1  UNL1       -0.2402
      3 C          61.7723   89.9553   10.7888 C.2     1  UNL1        0.0929
      4 C          62.2184   88.6517   11.3817 C.2     1  UNL1        0.0093
      5 C          61.6288   87.5433   10.5608 C.3     1  UNL1        0.1374
      6 N          61.9061   86.1139   10.9212 N.pl3   1  UNL1       -0.3295
      7 C          62.7731   85.7928   12.1024 C.2     1  UNL1        0.0215
      8 C          63.3627   86.9012   12.9233 C.2     1  UNL1        0.0322
      9 C          64.2297   86.5802   14.1045 C.2     1  UNL1        0.1707
     10 O          64.8193   87.6886   14.9253 O.2     1  UNL1       -0.2916
     11 C          64.5070   85.1509   14.4649 C.3     1  UNL1        0.0693
     12 C          63.9174   84.0425   13.6440 C.3     1  UNL1        0.0141
     13 C          63.0504   84.3635   12.4628 C.3     1  UNL1        0.0411
     14 C          63.0854   88.3307   12.5629 C.3     1  UNL1        0.1049
     15 H          61.5191   85.3864   10.3824 H       1  UNL1        0.1471
     16 C          63.6750   89.4391   13.3837 C.ar    1  UNL1        0.1312
     17 C          63.2402   89.8435   14.7612 C.ar    1  UNL1        0.0373
     18 C          64.0995   90.9920   15.2000 C.ar    1  UNL1        0.0472
     19 C          65.0654   91.2975   14.0937 C.ar    1  UNL1        0.1774
     20 O          64.8030   90.3377   12.9712 O.2     1  UNL1       -0.4506
     21 S          66.1101   92.3737   14.1075 S.3     1  UNL1       -0.0117
     22 C          66.4156   93.1385   12.8539 C.2     1  UNL1        0.1967
     23 N          66.0640   94.5722   12.5880 N.2     1  UNL1       -0.2196
     24 C          66.5575   94.9237   11.2157 C.2     1  UNL1        0.0985
     25 C          66.4937   96.1944   10.4211 C.2     1  UNL1        0.0201
     26 C          67.0866   96.2484    9.0443 C.2     1  UNL1       -0.0014
     27 C          67.7432   95.0319    8.4622 C.2     1  UNL1       -0.0042
     28 C          67.8070   93.7613    9.2568 C.3     1  UNL1        0.1432
     29 CL         68.4636   92.5447    8.6746 Cl      1  UNL1       -0.1036
     30 C          67.2141   93.7072   10.6336 C.2     1  UNL1        0.0977
     31 N          67.1264   92.6038   11.6461 N.2     1  UNL1       -0.2222
     32 C          60.0533   87.4201    8.4050 C.2     1  UNL1        0.3569
     33 O          59.0878   88.1546    7.5227 O.2     1  UNL1       -0.2435
     34 O          60.2538   85.9437    8.2316 O.3     1  UNL1       -0.4446
     35 C          62.6800   85.1442    7.7581 C.3     1  UNL1        0.0513
     36 C          61.2903   85.4348    7.2741 C.3     1  UNL1        0.2089
@<TRIPOS>BOND
     1    35    36    1
     2    36    34    1
     3    34    32    1
     4    32    33    2
     5    32     1    1
     6     1     2    2
     7     2     3    1
     8     3     4    2
     9     4     5    1
    10     5     6    1
    11     6     7    1
    12     7     8    2
    13     8     9    1
    14     9    10    2
    15     9    11    1
    16    11    12    1
    17    12    13    1
    18     8    14    1
    19    14    16    1
    20    16    17   ar
    21    17    18   ar
    22    18    19   ar
    23    19    21    1
    24    21    22    1
    25    22    23    2
    26    23    24    1
    27    24    25    2
    28    25    26    1
    29    26    27    2
    30    27    28    1
    31    28    29    1
    32    28    30    1
    33    30    31    2
    34    19    20   ar
    35     5     1    1
    36    13     7    1
    37    20    16   ar
    38    14     4    1
    39    31    22    1
    40    30    24    1
    41     6    15    1
@<TRIPOS>MOLECULE
*****
 36 41 0 0 0
SMALL
GASTEIGER

@<TRIPOS>ATOM
      1 C          66.0851   93.4826   12.2356 C.2     1  UNL1        0.1558
      2 N          66.5836   93.1930   13.6203 N.2     1  UNL1       -0.2402
      3 C          65.8643   91.9782   14.1272 C.2     1  UNL1        0.0929
      4 C          64.9213   91.5171   13.0557 C.2     1  UNL1        0.0093
      5 C          65.0578   92.4469   11.8866 C.3     1  UNL1        0.1374
      6 N          64.2289   92.2303   10.6553 N.pl3   1  UNL1       -0.3295
      7 C          63.2635   91.0839   10.5931 C.2     1  UNL1        0.0215
      8 C          63.1271   90.1541   11.7622 C.2     1  UNL1        0.0322
      9 C          62.1617   89.0077   11.7000 C.2     1  UNL1        0.1707
     10 O          62.0252   88.0779   12.8691 O.2     1  UNL1       -0.2916
     11 C          61.3329   88.7911   10.4687 C.3     1  UNL1        0.0693
     12 C          61.4694   89.7210    9.2996 C.3     1  UNL1        0.0141
     13 C          62.4347   90.8673    9.3618 C.3     1  UNL1        0.0411
     14 C          63.9560   90.3707   12.9935 C.3     1  UNL1        0.1049
     15 H          64.3185   92.8406    9.8880 H       1  UNL1        0.1471
     16 C          63.8195   89.4409   14.1626 C.ar    1  UNL1        0.1312
     17 C          63.2311   89.7850   15.4988 C.ar    1  UNL1        0.0373
     18 C          63.2954   88.5605   16.3628 C.ar    1  UNL1        0.0472
     19 C          63.9234   87.4596   15.5606 C.ar    1  UNL1        0.1774
     20 O          64.2473   88.0037   14.2008 O.2     1  UNL1       -0.4506
     21 S          64.1822   86.0603   16.0349 S.3     1  UNL1       -0.0117
     22 C          63.7765   84.8931   15.1846 C.2     1  UNL1        0.1967
     23 N          62.7997   83.8210   15.5670 N.2     1  UNL1       -0.2196
     24 C          62.6958   82.8583   14.4213 C.2     1  UNL1        0.0985
     25 C          61.8881   81.6089   14.2302 C.2     1  UNL1        0.0201
     26 C          61.9931   80.8368   12.9484 C.2     1  UNL1       -0.0014
     27 C          62.9057   81.3140   11.8579 C.2     1  UNL1       -0.0042
     28 C          63.7133   82.5635   12.0490 C.3     1  UNL1        0.1432
     29 CL         64.6259   83.0408   10.9584 Cl      1  UNL1       -0.1036
     30 C          63.6084   83.3356   13.3307 C.2     1  UNL1        0.0977
     31 N          64.2763   84.5932   13.8025 N.2     1  UNL1       -0.2222
     32 C          66.5350   94.6101   11.3544 C.2     1  UNL1        0.3569
     33 O          65.8669   95.9496   11.4505 O.2     1  UNL1       -0.2435
     34 O          67.6531   94.3981   10.3772 O.3     1  UNL1       -0.4446
     35 C          68.7783   92.3293    9.2799 C.3     1  UNL1        0.0513
     36 C          67.6006   93.2482    9.4153 C.3     1  UNL1        0.2089
@<TRIPOS>BOND
     1    35    36    1
     2    36    34    1
     3    34    32    1
     4    32    33    2
     5    32     1    1
     6     1     2    2
     7     2     3    1
     8     3     4    2
     9     4     5    1
    10     5     6    1
    11     6     7    1
    12     7     8    2
    13     8     9    1
    14     9    10    2
    15     9    11    1
    16    11    12    1
    17    12    13    1
    18     8    14    1
    19    14    16    1
    20    16    17   ar
    21    17    18   ar
    22    18    19   ar
    23    19    21    1
    24    21    22    1
    25    22    23    2
    26    23    24    1
    27    24    25    2
    28    25    26    1
    29    26    27    2
    30    27    28    1
    31    28    29    1
    32    28    30    1
    33    30    31    2
    34    19    20   ar
    35     5     1    1
    36    13     7    1
    37    20    16   ar
    38    14     4    1
    39    31    22    1
    40    30    24    1
    41     6    15    1
