@<TRIPOS>MOLECULE
*****
 36 38 0 0 0
SMALL
GASTEIGER

@<TRIPOS>ATOM
      1 C          65.5252   93.1999   11.9018 C.ar    1  UNL1        0.0696
      2 C          66.2391   92.8024   13.1597 C.ar    1  UNL1        0.0057
      3 C          65.8171   91.5705   13.9043 C.ar    1  UNL1       -0.0041
      4 C          64.6813   90.7361   13.3909 C.ar    1  UNL1       -0.0185
      5 C          63.9674   91.1336   12.1330 C.ar    1  UNL1        0.0677
      6 C          64.3894   92.3655   11.3885 C.ar    1  UNL1        0.0095
      7 C          64.2594   89.5042   14.1355 C.3     1  UNL1        0.0257
      8 C          64.2944   88.1678   13.4553 C.3     1  UNL1        0.0259
      9 C          63.8725   86.9359   14.1998 C.3     1  UNL1        0.0940
     10 N          63.4154   87.0404   15.6247 N.am    1  UNL1       -0.2760
     11 C          62.9935   85.8085   16.3692 C.2     1  UNL1        0.2505
     12 O          62.5365   85.9130   17.7941 O.2     1  UNL1       -0.2699
     13 C          63.3804   88.3768   16.3049 C.3     1  UNL1        0.0940
     14 C          63.8023   89.6087   15.5603 C.3     1  UNL1        0.0259
     15 C          63.0285   84.4721   15.6890 C.ar    1  UNL1        0.0729
     16 C          61.7691   83.8847   15.1243 C.ar    1  UNL1        0.0109
     17 C          61.8042   82.5483   14.4441 C.ar    1  UNL1        0.0577
     18 C          63.0986   81.7993   14.3285 C.ar    1  UNL1        0.2216
     19 O          63.1336   80.4628   13.6482 O.3     1  UNL1       -0.4919
     20 N          64.3580   82.3867   14.8931 N.ar    1  UNL1       -0.2101
     21 C          64.3230   83.7231   15.5734 C.ar    1  UNL1        0.1065
     22 H          62.3469   80.0959   13.2954 H       1  UNL1        0.2937
     23 N          66.2401   94.3567    9.6880 N.am    1  UNL1       -0.1708
     24 C          65.9472   94.4318   11.1572 C.2     1  UNL1        0.3078
     25 O          66.0762   95.7388   11.8818 O.2     1  UNL1       -0.2516
     26 H          66.1554   93.4989    9.2124 H       1  UNL1        0.2545
     27 N          66.1227   95.8562    7.5696 N.pl3   1  UNL1       -0.1313
     28 C          66.6620   95.5886    8.9435 C.2     1  UNL1        0.3751
     29 N          67.6233   96.5529    9.5728 N.pl3   1  UNL1       -0.2906
     30 H          66.3997   96.6647    7.0809 H       1  UNL1        0.3060
     31 H          67.9003   97.3615    9.0841 H       1  UNL1        0.2545
     32 H          67.9773   96.3773   10.4745 H       1  UNL1        0.2545
     33 C          62.8315   90.2991   11.6197 C.3     1  UNL1        0.4183
     34 F          61.6957   89.4647   11.1063 F       1  UNL1       -0.1659
     35 F          62.0794   90.5381   12.8952 F       1  UNL1       -0.1659
     36 F          63.5837   90.0601   10.3441 F       1  UNL1       -0.1659
@<TRIPOS>BOND
     1    27    28    2
     2    28    29    1
     3    28    23    1
     4    23    24   am
     5    24    25    2
     6    24     1    1
     7     1     2   ar
     8     2     3   ar
     9     3     4   ar
    10     4     7    1
    11     7     8    1
    12     8     9    1
    13     9    10    1
    14    10    11   am
    15    11    12    2
    16    11    15    1
    17    15    16   ar
    18    16    17   ar
    19    17    18   ar
    20    18    19    1
    21    18    20   ar
    22    20    21   ar
    23    10    13    1
    24    13    14    1
    25     4     5   ar
    26     5    33    1
    27    33    34    1
    28    33    35    1
    29    33    36    1
    30     5     6   ar
    31     6     1   ar
    32    14     7    1
    33    21    15   ar
    34    27    30    1
    35    29    31    1
    36    29    32    1
    37    23    26    1
    38    19    22    1
@<TRIPOS>MOLECULE
*****
 36 38 0 0 0
SMALL
GASTEIGER

@<TRIPOS>ATOM
      1 C          65.3119   92.3964   12.9544 C.ar    1  UNL1        0.0696
      2 C          66.0994   91.7013   14.0252 C.ar    1  UNL1        0.0057
      3 C          65.6976   90.3299   14.4810 C.ar    1  UNL1       -0.0041
      4 C          64.5084   89.6535   13.8660 C.ar    1  UNL1       -0.0185
      5 C          63.7210   90.3486   12.7952 C.ar    1  UNL1        0.0677
      6 C          64.1227   91.7200   12.3394 C.ar    1  UNL1        0.0095
      7 C          64.1067   88.2821   14.3218 C.3     1  UNL1        0.0257
      8 C          64.0597   87.1492   13.3398 C.3     1  UNL1        0.0259
      9 C          63.6580   85.7777   13.7956 C.3     1  UNL1        0.0940
     10 N          63.3033   85.5392   15.2334 N.am    1  UNL1       -0.2760
     11 C          62.9016   84.1677   15.6892 C.2     1  UNL1        0.2505
     12 O          62.5468   83.9292   17.1270 O.2     1  UNL1       -0.2699
     13 C          63.3503   86.6721   16.2154 C.3     1  UNL1        0.0940
     14 C          63.7520   88.0435   15.7596 C.3     1  UNL1        0.0259
     15 C          62.8546   83.0348   14.7072 C.ar    1  UNL1        0.0729
     16 C          64.0710   82.6917   13.8993 C.ar    1  UNL1        0.0109
     17 C          64.0240   81.5588   12.9173 C.ar    1  UNL1        0.0577
     18 C          62.7607   80.7690   12.7433 C.ar    1  UNL1        0.2216
     19 O          62.7138   79.6360   11.7612 O.3     1  UNL1       -0.4919
     20 N          61.5444   81.1121   13.5512 N.ar    1  UNL1       -0.2101
     21 C          61.5913   82.2450   14.5332 C.ar    1  UNL1        0.1065
     22 H          63.4736   79.4217   11.2566 H       1  UNL1        0.2937
     23 N          65.3520   94.2359   11.1202 N.am    1  UNL1       -0.1708
     24 C          65.7136   93.7679   12.4986 C.2     1  UNL1        0.3078
     25 O          66.4769   94.6712   13.4212 O.2     1  UNL1       -0.2516
     26 H          64.8510   93.6430   10.5146 H       1  UNL1        0.2545
     27 N          65.7216   96.7571   11.6272 N.pl3   1  UNL1       -0.1313
     28 C          65.7537   95.6074   10.6644 C.2     1  UNL1        0.3751
     29 N          66.1876   95.8291    9.2456 N.pl3   1  UNL1       -0.2906
     30 H          65.9853   97.6572   11.3280 H       1  UNL1        0.3060
     31 H          66.4512   96.7292    8.9465 H       1  UNL1        0.2545
     32 H          66.2086   95.0745    8.6137 H       1  UNL1        0.2545
     33 C          62.5317   89.6722   12.1801 C.3     1  UNL1        0.4183
     34 F          61.3425   88.9959   11.5651 F       1  UNL1       -0.1659
     35 F          63.3580   89.3084   10.9823 F       1  UNL1       -0.1659
     36 F          61.7053   90.0361   13.3779 F       1  UNL1       -0.1659
@<TRIPOS>BOND
     1    27    28    2
     2    28    29    1
     3    28    23    1
     4    23    24   am
     5    24    25    2
     6    24     1    1
     7     1     2   ar
     8     2     3   ar
     9     3     4   ar
    10     4     7    1
    11     7     8    1
    12     8     9    1
    13     9    10    1
    14    10    11   am
    15    11    12    2
    16    11    15    1
    17    15    16   ar
    18    16    17   ar
    19    17    18   ar
    20    18    19    1
    21    18    20   ar
    22    20    21   ar
    23    10    13    1
    24    13    14    1
    25     4     5   ar
    26     5    33    1
    27    33    34    1
    28    33    35    1
    29    33    36    1
    30     5     6   ar
    31     6     1   ar
    32    14     7    1
    33    21    15   ar
    34    27    30    1
    35    29    31    1
    36    29    32    1
    37    23    26    1
    38    19    22    1
@<TRIPOS>MOLECULE
*****
 36 38 0 0 0
SMALL
GASTEIGER

@<TRIPOS>ATOM
      1 C          59.4081   89.5329    7.1581 C.ar    1  UNL1        0.0696
      2 C          59.4968   88.0369    7.0956 C.ar    1  UNL1        0.0057
      3 C          60.2109   87.2820    8.1773 C.ar    1  UNL1       -0.0041
      4 C          60.8364   88.0232    9.3216 C.ar    1  UNL1       -0.0185
      5 C          60.7477   89.5192    9.3841 C.ar    1  UNL1        0.0677
      6 C          60.0335   90.2741    8.3024 C.ar    1  UNL1        0.0095
      7 C          61.5505   87.2683   10.4033 C.3     1  UNL1        0.0257
      8 C          61.3387   85.7908   10.5521 C.3     1  UNL1        0.0259
      9 C          62.0528   85.0360   11.6339 C.3     1  UNL1        0.0940
     10 N          62.9789   85.7585   12.5667 N.am    1  UNL1       -0.2760
     11 C          63.6930   85.0037   13.6485 C.2     1  UNL1        0.2505
     12 O          64.6190   85.7262   14.5814 O.2     1  UNL1       -0.2699
     13 C          63.1907   87.2360   12.4179 C.3     1  UNL1        0.0940
     14 C          62.4766   87.9909   11.3362 C.3     1  UNL1        0.0259
     15 C          63.4812   83.5262   13.7973 C.ar    1  UNL1        0.0729
     16 C          64.3217   82.5649   13.0102 C.ar    1  UNL1        0.0109
     17 C          64.1098   81.0875   13.1591 C.ar    1  UNL1        0.0577
     18 C          63.0574   80.5712   14.0950 C.ar    1  UNL1        0.2216
     19 O          62.8456   79.0937   14.2438 O.3     1  UNL1       -0.4919
     20 N          62.2169   81.5324   14.8820 N.ar    1  UNL1       -0.2101
     21 C          62.4287   83.0100   14.7332 C.ar    1  UNL1        0.1065
     22 H          63.3707   78.4932   13.7521 H       1  UNL1        0.2937
     23 N          59.4398   91.2843    5.2394 N.am    1  UNL1       -0.1708
     24 C          58.6939   90.2878    6.0764 C.2     1  UNL1        0.3078
     25 O          57.2339   90.0462    5.8317 O.2     1  UNL1       -0.2516
     26 H          60.3981   91.4429    5.4000 H       1  UNL1        0.2545
     27 N          57.2333   91.9464    4.0381 N.pl3   1  UNL1       -0.1313
     28 C          58.7256   92.0392    4.1576 C.2     1  UNL1        0.3751
     29 N          59.5039   92.8869    3.1954 N.pl3   1  UNL1       -0.2906
     30 H          56.7646   92.4418    3.3281 H       1  UNL1        0.3060
     31 H          59.0351   93.3824    2.4855 H       1  UNL1        0.2545
     32 H          60.4833   92.9479    3.2739 H       1  UNL1        0.2545
     33 C          61.3732   90.2605   10.5285 C.3     1  UNL1        0.4183
     34 F          61.9987   91.0017   11.6727 F       1  UNL1       -0.1659
     35 F          60.1147   90.0902   11.3267 F       1  UNL1       -0.1659
     36 F          62.6316   90.4307    9.7302 F       1  UNL1       -0.1659
@<TRIPOS>BOND
     1    27    28    2
     2    28    29    1
     3    28    23    1
     4    23    24   am
     5    24    25    2
     6    24     1    1
     7     1     2   ar
     8     2     3   ar
     9     3     4   ar
    10     4     7    1
    11     7     8    1
    12     8     9    1
    13     9    10    1
    14    10    11   am
    15    11    12    2
    16    11    15    1
    17    15    16   ar
    18    16    17   ar
    19    17    18   ar
    20    18    19    1
    21    18    20   ar
    22    20    21   ar
    23    10    13    1
    24    13    14    1
    25     4     5   ar
    26     5    33    1
    27    33    34    1
    28    33    35    1
    29    33    36    1
    30     5     6   ar
    31     6     1   ar
    32    14     7    1
    33    21    15   ar
    34    27    30    1
    35    29    31    1
    36    29    32    1
    37    23    26    1
    38    19    22    1
@<TRIPOS>MOLECULE
*****
 36 38 0 0 0
SMALL
GASTEIGER

@<TRIPOS>ATOM
      1 C          62.9679   81.4976   11.6787 C.ar    1  UNL1        0.0696
      2 C          63.0383   82.3592   10.4530 C.ar    1  UNL1        0.0057
      3 C          63.0686   83.8530   10.5868 C.ar    1  UNL1       -0.0041
      4 C          63.0284   84.4850   11.9465 C.ar    1  UNL1       -0.0185
      5 C          62.9579   83.6234   13.1723 C.ar    1  UNL1        0.0677
      6 C          62.9276   82.1297   13.0384 C.ar    1  UNL1        0.0095
      7 C          63.0586   85.9788   12.0804 C.3     1  UNL1        0.0257
      8 C          63.8981   86.6194   13.1456 C.3     1  UNL1        0.0259
      9 C          63.9284   88.1131   13.2795 C.3     1  UNL1        0.0940
     10 N          63.1192   88.9662   12.3482 N.am    1  UNL1       -0.2760
     11 C          63.1494   90.4599   12.4821 C.2     1  UNL1        0.2505
     12 O          62.3402   91.3129   11.5508 O.2     1  UNL1       -0.2699
     13 C          62.2797   88.3255   11.2830 C.3     1  UNL1        0.0940
     14 C          62.2494   86.8318   11.1491 C.3     1  UNL1        0.0259
     15 C          63.9889   91.1005   13.5473 C.ar    1  UNL1        0.0729
     16 C          65.2413   91.8368   13.1736 C.ar    1  UNL1        0.0109
     17 C          66.0808   92.4775   14.2389 C.ar    1  UNL1        0.0577
     18 C          65.6680   92.3819   15.6778 C.ar    1  UNL1        0.2216
     19 O          66.5075   93.0227   16.7430 O.3     1  UNL1       -0.4919
     20 N          64.4157   91.6457   16.0515 N.ar    1  UNL1       -0.2101
     21 C          63.5761   91.0050   14.9862 C.ar    1  UNL1        0.1065
     22 H          67.2898   93.4826   16.5096 H       1  UNL1        0.2937
     23 N          63.2448   79.3629   10.2240 N.am    1  UNL1       -0.1708
     24 C          62.9376   80.0039   11.5449 C.2     1  UNL1        0.3078
     25 O          62.6001   79.1512   12.7318 O.2     1  UNL1       -0.2516
     26 H          63.4664   79.9226    9.4449 H       1  UNL1        0.2545
     27 N          64.3191   77.1586    9.3656 N.pl3   1  UNL1       -0.1313
     28 C          63.2146   77.8692   10.0901 C.2     1  UNL1        0.3751
     29 N          62.0797   77.0861   10.6808 N.pl3   1  UNL1       -0.2906
     30 H          64.2992   76.1783    9.2777 H       1  UNL1        0.3060
     31 H          62.0598   76.1057   10.5929 H       1  UNL1        0.2545
     32 H          61.3547   77.5525   11.1564 H       1  UNL1        0.2545
     33 C          62.9177   84.2555   14.5321 C.3     1  UNL1        0.4183
     34 F          62.8774   84.8876   15.8918 F       1  UNL1       -0.1659
     35 F          64.3927   84.0278   14.6816 F       1  UNL1       -0.1659
     36 F          61.4427   84.4833   14.3826 F       1  UNL1       -0.1659
@<TRIPOS>BOND
     1    27    28    2
     2    28    29    1
     3    28    23    1
     4    23    24   am
     5    24    25    2
     6    24     1    1
     7     1     2   ar
     8     2     3   ar
     9     3     4   ar
    10     4     7    1
    11     7     8    1
    12     8     9    1
    13     9    10    1
    14    10    11   am
    15    11    12    2
    16    11    15    1
    17    15    16   ar
    18    16    17   ar
    19    17    18   ar
    20    18    19    1
    21    18    20   ar
    22    20    21   ar
    23    10    13    1
    24    13    14    1
    25     4     5   ar
    26     5    33    1
    27    33    34    1
    28    33    35    1
    29    33    36    1
    30     5     6   ar
    31     6     1   ar
    32    14     7    1
    33    21    15   ar
    34    27    30    1
    35    29    31    1
    36    29    32    1
    37    23    26    1
    38    19    22    1
@<TRIPOS>MOLECULE
*****
 36 38 0 0 0
SMALL
GASTEIGER

@<TRIPOS>ATOM
      1 C          62.8923   81.5160   11.6661 C.ar    1  UNL1        0.0696
      2 C          62.7849   82.1522   13.0202 C.ar    1  UNL1        0.0057
      3 C          62.8238   83.6459   13.1523 C.ar    1  UNL1       -0.0041
      4 C          62.9701   84.5033   11.9303 C.ar    1  UNL1       -0.0185
      5 C          63.0776   83.8671   10.5762 C.ar    1  UNL1        0.0677
      6 C          63.0387   82.3734   10.4441 C.ar    1  UNL1        0.0095
      7 C          63.0091   85.9970   12.0624 C.3     1  UNL1        0.0257
      8 C          63.8640   86.6346   13.1171 C.3     1  UNL1        0.0259
      9 C          63.9029   88.1283   13.2492 C.3     1  UNL1        0.0940
     10 N          63.0869   88.9843   12.3266 N.am    1  UNL1       -0.2760
     11 C          63.1258   90.4780   12.4587 C.2     1  UNL1        0.2505
     12 O          62.3097   91.3340   11.5361 O.2     1  UNL1       -0.2699
     13 C          62.2319   88.3467   11.2719 C.3     1  UNL1        0.0940
     14 C          62.1930   86.8530   11.1398 C.3     1  UNL1        0.0259
     15 C          63.9807   91.1156   13.5133 C.ar    1  UNL1        0.0729
     16 C          65.2268   91.8542   13.1234 C.ar    1  UNL1        0.0109
     17 C          66.0818   92.4918   14.1781 C.ar    1  UNL1        0.0577
     18 C          65.6907   92.3910   15.6227 C.ar    1  UNL1        0.2216
     19 O          66.5458   93.0287   16.6774 O.3     1  UNL1       -0.4919
     20 N          64.4448   91.6525   16.0127 N.ar    1  UNL1       -0.2101
     21 C          63.5897   91.0148   14.9580 C.ar    1  UNL1        0.1065
     22 H          67.3241   93.4900   16.4338 H       1  UNL1        0.2937
     23 N          63.2475   79.3733   10.2404 N.am    1  UNL1       -0.1708
     24 C          62.8534   80.0223   11.5340 C.2     1  UNL1        0.3078
     25 O          62.4205   79.1777   12.6955 O.2     1  UNL1       -0.2516
     26 H          63.5316   79.9276    9.4781 H       1  UNL1        0.2545
     27 N          64.2882   77.1653    9.3507 N.pl3   1  UNL1       -0.1313
     28 C          63.2086   77.8796   10.1083 C.2     1  UNL1        0.3751
     29 N          62.0899   77.1002   10.7340 N.pl3   1  UNL1       -0.2906
     30 H          64.2627   76.1850    9.2640 H       1  UNL1        0.3060
     31 H          62.0644   76.1199   10.6473 H       1  UNL1        0.2545
     32 H          61.3813   77.5691   11.2313 H       1  UNL1        0.2545
     33 C          63.2239   84.7245    9.3541 C.3     1  UNL1        0.4183
     34 F          63.3702   85.5819    8.1321 F       1  UNL1       -0.1659
     35 F          61.7489   84.9969    9.3685 F       1  UNL1       -0.1659
     36 F          64.6988   84.4522    9.3396 F       1  UNL1       -0.1659
@<TRIPOS>BOND
     1    27    28    2
     2    28    29    1
     3    28    23    1
     4    23    24   am
     5    24    25    2
     6    24     1    1
     7     1     2   ar
     8     2     3   ar
     9     3     4   ar
    10     4     7    1
    11     7     8    1
    12     8     9    1
    13     9    10    1
    14    10    11   am
    15    11    12    2
    16    11    15    1
    17    15    16   ar
    18    16    17   ar
    19    17    18   ar
    20    18    19    1
    21    18    20   ar
    22    20    21   ar
    23    10    13    1
    24    13    14    1
    25     4     5   ar
    26     5    33    1
    27    33    34    1
    28    33    35    1
    29    33    36    1
    30     5     6   ar
    31     6     1   ar
    32    14     7    1
    33    21    15   ar
    34    27    30    1
    35    29    31    1
    36    29    32    1
    37    23    26    1
    38    19    22    1
