@<TRIPOS>MOLECULE
*****
 53 57 0 0 0
SMALL
GASTEIGER

@<TRIPOS>ATOM
      1 C          64.5551   90.8403   14.2320 C.3     1  UNL1        0.1776
      2 O          64.4822   89.6154   13.3693 O.3     1  UNL1       -0.3160
      3 C          63.9713   88.3256   13.9400 C.3     1  UNL1        0.3182
      4 C          63.5335   88.2608   15.3731 C.3     1  UNL1        0.2105
      5 O          63.0226   86.9710   15.9437 O.3     1  UNL1       -0.3766
      6 C          63.6064   89.4857   16.2358 C.3     1  UNL1        0.1728
      7 O          63.1685   89.4209   17.6689 O.3     1  UNL1       -0.3793
      8 C          64.1172   90.7755   15.6652 C.3     1  UNL1        0.1695
      9 O          64.1902   92.0004   16.5279 O.3     1  UNL1       -0.3794
     10 H          63.0410   86.2846   15.2585 H       1  UNL1        0.2107
     11 H          63.2796   90.2922   18.0807 H       1  UNL1        0.2105
     12 H          64.5399   92.7413   16.0085 H       1  UNL1        0.2105
     13 C          65.0660   92.1301   13.6615 C.3     1  UNL1        0.1769
     14 O          66.5067   92.2556   13.2634 O.3     1  UNL1       -0.3259
     15 C          68.7188   92.2672    8.5616 C.3     1  UNL1        0.0348
     16 C          67.9823   92.9866    9.6525 C.3     1  UNL1        0.1471
     17 O          67.6128   92.2615   10.9125 O.3     1  UNL1       -0.3286
     18 C          66.8762   92.9808   12.0033 C.3     1  UNL1        0.2657
     19 C          66.5092   94.4253   11.8342 C.3     1  UNL1        0.1964
     20 O          65.7726   95.1447   12.9251 O.3     1  UNL1       -0.3775
     21 C          66.8787   95.1504   10.5742 C.3     1  UNL1        0.1714
     22 O          66.5116   96.5950   10.4051 O.3     1  UNL1       -0.3794
     23 C          67.6152   94.4311    9.4834 C.3     1  UNL1        0.1668
     24 O          67.9847   95.1563    8.2233 O.3     1  UNL1       -0.3795
     25 H          65.0344   94.5960   13.2331 H       1  UNL1        0.2106
     26 H          66.8218   96.9084    9.5411 H       1  UNL1        0.2105
     27 H          67.6759   96.0743    8.2762 H       1  UNL1        0.2105
     28 O          63.8984   87.1006   13.0773 O.3     1  UNL1       -0.4441
     29 C          62.8830   87.0181   11.9762 C.ar    1  UNL1        0.2144
     30 C          62.3133   85.6884   11.5795 C.ar    1  UNL1        0.1823
     31 O          61.2980   85.6058   10.4785 O.2     1  UNL1       -0.4500
     32 C          60.8523   86.8530    9.7742 C.ar    1  UNL1        0.1545
     33 C          59.8370   86.7704    8.6732 C.ar    1  UNL1        0.0744
     34 C          59.3914   88.0175    7.9689 C.ar    1  UNL1        0.1397
     35 O          58.3760   87.9350    6.8678 O.3     1  UNL1       -0.5053
     36 C          59.9610   89.3472    8.3656 C.ar    1  UNL1        0.0735
     37 C          60.9764   89.4298    9.4666 C.ar    1  UNL1        0.1428
     38 O          61.5460   90.7594    9.8633 O.3     1  UNL1       -0.5052
     39 C          61.4220   88.1826   10.1709 C.ar    1  UNL1        0.1104
     40 C          62.4374   88.2652   11.2720 C.ar    1  UNL1        0.2382
     41 O          63.0070   89.5949   11.6687 O.2     1  UNL1       -0.2830
     42 H          58.0201   87.1044    6.6200 H       1  UNL1        0.2922
     43 H          61.2676   91.5385    9.4234 H       1  UNL1        0.2922
     44 C          62.7590   84.4412   12.2839 C.ar    1  UNL1        0.0409
     45 C          63.4680   83.3617   11.5211 C.ar    1  UNL1        0.0064
     46 C          63.9136   82.1146   12.2254 C.ar    1  UNL1        0.0399
     47 C          63.6503   81.9471   13.6926 C.ar    1  UNL1        0.1675
     48 O          64.0960   80.6999   14.3969 O.3     1  UNL1       -0.5029
     49 C          62.9414   83.0266   14.4554 C.ar    1  UNL1        0.1676
     50 O          62.6780   82.8591   15.9226 O.3     1  UNL1       -0.5029
     51 C          62.4957   84.2737   13.7510 C.ar    1  UNL1        0.0429
     52 H          64.5389   80.0256   13.9204 H       1  UNL1        0.2923
     53 H          62.9564   82.0801   16.3626 H       1  UNL1        0.2923
@<TRIPOS>BOND
     1    16    15    1
     2    16    17    1
     3    17    18    1
     4    18    14    1
     5    14    13    1
     6     1    13    1
     7     1     2    1
     8     2     3    1
     9     3    28    1
    10    28    29    1
    11    29    30   ar
    12    30    44    1
    13    44    45   ar
    14    45    46   ar
    15    46    47   ar
    16    47    48    1
    17    47    49   ar
    18    49    50    1
    19    49    51   ar
    20    30    31   ar
    21    31    32   ar
    22    32    33   ar
    23    33    34   ar
    24    34    35    1
    25    34    36   ar
    26    36    37   ar
    27    37    38    1
    28    37    39   ar
    29    39    40   ar
    30    40    41    2
    31     3     4    1
    32     4     5    1
    33     4     6    1
    34     6     7    1
    35     6     8    1
    36     8     9    1
    37    18    19    1
    38    19    20    1
    39    19    21    1
    40    21    22    1
    41    21    23    1
    42    23    24    1
    43    23    16    1
    44     8     1    1
    45    40    29   ar
    46    51    44   ar
    47    39    32   ar
    48    48    52    1
    49    50    53    1
    50    35    42    1
    51    38    43    1
    52     5    10    1
    53     7    11    1
    54     9    12    1
    55    20    25    1
    56    22    26    1
    57    24    27    1
@<TRIPOS>MOLECULE
*****
 53 57 0 0 0
SMALL
GASTEIGER

@<TRIPOS>ATOM
      1 C          65.6895   91.3669   13.6474 C.3     1  UNL1        0.1776
      2 O          64.9045   90.5228   12.6876 O.3     1  UNL1       -0.3160
      3 C          63.5938   89.9283   13.1104 C.3     1  UNL1        0.3182
      4 C          63.0682   90.1778   14.4930 C.3     1  UNL1        0.2105
      5 O          61.7576   89.5833   14.9157 O.3     1  UNL1       -0.3766
      6 C          63.8533   91.0220   15.4528 C.3     1  UNL1        0.1728
      7 O          63.3277   91.2715   16.8353 O.3     1  UNL1       -0.3793
      8 C          65.1639   91.6165   15.0300 C.3     1  UNL1        0.1695
      9 O          65.9489   92.4606   15.9898 O.3     1  UNL1       -0.3794
     10 H          61.3838   89.0702   14.1824 H       1  UNL1        0.2107
     11 H          63.9521   91.8317   17.3223 H       1  UNL1        0.2105
     12 H          66.7645   92.7640   15.5612 H       1  UNL1        0.2105
     13 C          67.0001   91.9615   13.2246 C.3     1  UNL1        0.1769
     14 O          67.1204   93.4424   13.0191 O.3     1  UNL1       -0.3259
     15 C          64.6589   96.8556    9.9709 C.3     1  UNL1        0.0348
     16 C          65.6476   95.7400   10.1377 C.3     1  UNL1        0.1471
     17 O          65.8896   95.1490   11.4950 O.3     1  UNL1       -0.3286
     18 C          66.8783   94.0334   11.6618 C.3     1  UNL1        0.2657
     19 C          67.6249   93.5086   10.4713 C.3     1  UNL1        0.1964
     20 O          68.6136   92.3930   10.6381 O.3     1  UNL1       -0.3775
     21 C          67.3828   94.0996    9.1141 C.3     1  UNL1        0.1714
     22 O          68.1294   93.5748    7.9236 O.3     1  UNL1       -0.3794
     23 C          66.3942   95.2152    8.9473 C.3     1  UNL1        0.1668
     24 O          66.1521   95.8061    7.5900 O.3     1  UNL1       -0.3795
     25 H          69.1874   92.5803   11.3974 H       1  UNL1        0.2106
     26 H          67.8571   94.0625    7.1305 H       1  UNL1        0.2105
     27 H          66.7107   95.3561    6.9371 H       1  UNL1        0.2105
     28 O          62.8087   89.0842   12.1507 O.3     1  UNL1       -0.4441
     29 C          62.8182   87.5901   12.2847 C.ar    1  UNL1        0.2144
     30 C          62.0393   86.7456   11.3203 C.ar    1  UNL1        0.1823
     31 O          62.0487   85.2517   11.4544 O.2     1  UNL1       -0.4500
     32 C          62.8372   84.6022   12.5528 C.ar    1  UNL1        0.1545
     33 C          62.8467   83.1082   12.6868 C.ar    1  UNL1        0.0744
     34 C          63.6351   82.4588   13.7852 C.ar    1  UNL1        0.1397
     35 O          63.6446   80.9648   13.9192 O.3     1  UNL1       -0.5053
     36 C          64.4141   83.3033   14.7496 C.ar    1  UNL1        0.0735
     37 C          64.4046   84.7972   14.6156 C.ar    1  UNL1        0.1428
     38 O          65.1836   85.6417   15.5799 O.3     1  UNL1       -0.5052
     39 C          63.6162   85.4467   13.5172 C.ar    1  UNL1        0.1104
     40 C          63.6067   86.9407   13.3831 C.ar    1  UNL1        0.2382
     41 O          64.3857   87.7852   14.3475 O.2     1  UNL1       -0.2830
     42 H          63.1581   80.4372   13.3168 H       1  UNL1        0.2922
     43 H          65.6762   85.2360   16.2661 H       1  UNL1        0.2922
     44 C          61.2508   87.3952   10.2219 C.ar    1  UNL1        0.0409
     45 C          61.4012   88.8641    9.9584 C.ar    1  UNL1        0.0064
     46 C          60.6127   89.5136    8.8600 C.ar    1  UNL1        0.0399
     47 C          59.6738   88.6941    8.0251 C.ar    1  UNL1        0.1675
     48 O          58.8854   89.3436    6.9267 O.3     1  UNL1       -0.5029
     49 C          59.5234   87.2251    8.2887 C.ar    1  UNL1        0.1676
     50 O          58.5846   86.4056    7.4538 O.3     1  UNL1       -0.5029
     51 C          60.3119   86.5757    9.3871 C.ar    1  UNL1        0.0429
     52 H          58.9793   90.2612    6.7621 H       1  UNL1        0.2923
     53 H          58.0921   86.8113    6.7677 H       1  UNL1        0.2923
@<TRIPOS>BOND
     1    16    15    1
     2    16    17    1
     3    17    18    1
     4    18    14    1
     5    14    13    1
     6     1    13    1
     7     1     2    1
     8     2     3    1
     9     3    28    1
    10    28    29    1
    11    29    30   ar
    12    30    44    1
    13    44    45   ar
    14    45    46   ar
    15    46    47   ar
    16    47    48    1
    17    47    49   ar
    18    49    50    1
    19    49    51   ar
    20    30    31   ar
    21    31    32   ar
    22    32    33   ar
    23    33    34   ar
    24    34    35    1
    25    34    36   ar
    26    36    37   ar
    27    37    38    1
    28    37    39   ar
    29    39    40   ar
    30    40    41    2
    31     3     4    1
    32     4     5    1
    33     4     6    1
    34     6     7    1
    35     6     8    1
    36     8     9    1
    37    18    19    1
    38    19    20    1
    39    19    21    1
    40    21    22    1
    41    21    23    1
    42    23    24    1
    43    23    16    1
    44     8     1    1
    45    40    29   ar
    46    51    44   ar
    47    39    32   ar
    48    48    52    1
    49    50    53    1
    50    35    42    1
    51    38    43    1
    52     5    10    1
    53     7    11    1
    54     9    12    1
    55    20    25    1
    56    22    26    1
    57    24    27    1
@<TRIPOS>MOLECULE
*****
 53 57 0 0 0
SMALL
GASTEIGER

@<TRIPOS>ATOM
      1 C          63.6563   89.5585   15.6866 C.3     1  UNL1        0.1776
      2 O          63.9088   88.8350   14.3971 O.3     1  UNL1       -0.3160
      3 C          63.8416   87.3371   14.3520 C.3     1  UNL1        0.3182
      4 C          63.5219   86.5629   15.5963 C.3     1  UNL1        0.2105
      5 O          63.4547   85.0651   15.5511 O.3     1  UNL1       -0.3766
      6 C          63.2694   87.2864   16.8858 C.3     1  UNL1        0.1728
      7 O          62.9497   86.5122   18.1300 O.3     1  UNL1       -0.3793
      8 C          63.3366   88.7842   16.9310 C.3     1  UNL1        0.1695
      9 O          63.0841   89.5077   18.2204 O.3     1  UNL1       -0.3794
     10 H          63.6416   84.7601   14.6494 H       1  UNL1        0.2107
     11 H          62.8156   87.1272   18.8680 H       1  UNL1        0.2105
     12 H          63.1659   90.4635   18.0763 H       1  UNL1        0.2105
     13 C          63.7235   91.0563   15.7318 C.3     1  UNL1        0.1769
     14 O          65.0541   91.7485   15.7079 O.3     1  UNL1       -0.3259
     15 C          64.9900   92.7848   10.6166 C.3     1  UNL1        0.0348
     16 C          65.7513   92.4453   11.8636 C.3     1  UNL1        0.1471
     17 O          65.0221   92.2666   13.1622 O.3     1  UNL1       -0.3286
     18 C          65.7833   91.9271   14.4093 C.3     1  UNL1        0.2657
     19 C          67.2737   91.7662   14.3578 C.3     1  UNL1        0.1964
     20 O          68.0350   91.4266   15.6049 O.3     1  UNL1       -0.3775
     21 C          68.0029   91.9448   13.0592 C.3     1  UNL1        0.1714
     22 O          69.4934   91.7839   13.0077 O.3     1  UNL1       -0.3794
     23 C          67.2417   92.2843   11.8122 C.3     1  UNL1        0.1668
     24 O          67.9709   92.4630   10.5135 O.3     1  UNL1       -0.3795
     25 H          67.7366   91.9964   16.3310 H       1  UNL1        0.2106
     26 H          69.8034   91.9316   12.1005 H       1  UNL1        0.2105
     27 H          68.9207   92.3253   10.6545 H       1  UNL1        0.2105
     28 O          64.0941   86.6136   13.0625 O.3     1  UNL1       -0.4441
     29 C          63.0497   86.6132   11.9858 C.ar    1  UNL1        0.2144
     30 C          62.4300   85.3212   11.5425 C.ar    1  UNL1        0.1823
     31 O          61.3856   85.3207   10.4658 O.2     1  UNL1       -0.4500
     32 C          60.9609   86.6124    9.8324 C.ar    1  UNL1        0.1545
     33 C          59.9165   86.6120    8.7557 C.ar    1  UNL1        0.0744
     34 C          59.4919   87.9037    8.1223 C.ar    1  UNL1        0.1397
     35 O          58.4475   87.9033    7.0456 O.3     1  UNL1       -0.5053
     36 C          60.1116   89.1957    8.5656 C.ar    1  UNL1        0.0735
     37 C          61.1559   89.1962    9.6423 C.ar    1  UNL1        0.1428
     38 O          61.7756   90.4883   10.0855 O.3     1  UNL1       -0.5052
     39 C          61.5806   87.9045   10.2756 C.ar    1  UNL1        0.1104
     40 C          62.6250   87.9049   11.3524 C.ar    1  UNL1        0.2382
     41 O          63.2447   89.1970   11.7957 O.2     1  UNL1       -0.2830
     42 H          58.0604   87.0962    6.7686 H       1  UNL1        0.2922
     43 H          61.5103   91.2951    9.6899 H       1  UNL1        0.2922
     44 C          62.8547   84.0294   12.1760 C.ar    1  UNL1        0.0409
     45 C          64.1092   83.3464   11.7181 C.ar    1  UNL1        0.0064
     46 C          64.5338   82.0548   12.3515 C.ar    1  UNL1        0.0399
     47 C          63.7040   81.4462   13.4429 C.ar    1  UNL1        0.1675
     48 O          64.1287   80.1545   14.0763 O.3     1  UNL1       -0.5029
     49 C          62.4495   82.1292   13.9007 C.ar    1  UNL1        0.1676
     50 O          61.6197   81.5206   14.9921 O.3     1  UNL1       -0.5029
     51 C          62.0249   83.4209   13.2673 C.ar    1  UNL1        0.0429
     52 H          64.9124   79.7278   13.7903 H       1  UNL1        0.2923
     53 H          61.8850   80.7138   15.3878 H       1  UNL1        0.2923
@<TRIPOS>BOND
     1    16    15    1
     2    16    17    1
     3    17    18    1
     4    18    14    1
     5    14    13    1
     6     1    13    1
     7     1     2    1
     8     2     3    1
     9     3    28    1
    10    28    29    1
    11    29    30   ar
    12    30    44    1
    13    44    45   ar
    14    45    46   ar
    15    46    47   ar
    16    47    48    1
    17    47    49   ar
    18    49    50    1
    19    49    51   ar
    20    30    31   ar
    21    31    32   ar
    22    32    33   ar
    23    33    34   ar
    24    34    35    1
    25    34    36   ar
    26    36    37   ar
    27    37    38    1
    28    37    39   ar
    29    39    40   ar
    30    40    41    2
    31     3     4    1
    32     4     5    1
    33     4     6    1
    34     6     7    1
    35     6     8    1
    36     8     9    1
    37    18    19    1
    38    19    20    1
    39    19    21    1
    40    21    22    1
    41    21    23    1
    42    23    24    1
    43    23    16    1
    44     8     1    1
    45    40    29   ar
    46    51    44   ar
    47    39    32   ar
    48    48    52    1
    49    50    53    1
    50    35    42    1
    51    38    43    1
    52     5    10    1
    53     7    11    1
    54     9    12    1
    55    20    25    1
    56    22    26    1
    57    24    27    1
@<TRIPOS>MOLECULE
*****
 53 57 0 0 0
SMALL
GASTEIGER

@<TRIPOS>ATOM
      1 C          62.2926   85.8009    9.4197 C.3     1  UNL1        0.1776
      2 O          62.5517   86.4771   10.7333 O.3     1  UNL1       -0.3160
      3 C          61.6478   87.5794   11.2006 C.3     1  UNL1        0.3182
      4 C          60.4850   88.0053   10.3542 C.3     1  UNL1        0.2105
      5 O          59.5813   89.1075   10.8214 O.3     1  UNL1       -0.3766
      6 C          60.2259   87.3291    9.0406 C.3     1  UNL1        0.1728
      7 O          59.0631   87.7550    8.1942 O.3     1  UNL1       -0.3793
      8 C          61.1297   86.2269    8.5733 C.3     1  UNL1        0.1695
      9 O          60.8706   85.5507    7.2597 O.3     1  UNL1       -0.3794
     10 H          59.8870   89.4332   11.6825 H       1  UNL1        0.2107
     11 H          59.0394   87.2208    7.3849 H       1  UNL1        0.2105
     12 H          61.5423   84.8670    7.1100 H       1  UNL1        0.2105
     13 C          63.1964   84.6987    8.9525 C.3     1  UNL1        0.1769
     14 O          64.1536   84.0561    9.9120 O.3     1  UNL1       -0.3259
     15 C          62.7428   79.0974   10.5605 C.3     1  UNL1        0.0348
     16 C          62.9823   80.4648   11.1287 C.3     1  UNL1        0.1471
     17 O          63.4482   81.5768   10.2363 O.3     1  UNL1       -0.3286
     18 C          63.6877   82.9441   10.8045 C.3     1  UNL1        0.2657
     19 C          63.4614   83.1996   12.2652 C.3     1  UNL1        0.1964
     20 O          63.7009   84.5670   12.8334 O.3     1  UNL1       -0.3775
     21 C          62.9955   82.0876   13.1576 C.3     1  UNL1        0.1714
     22 O          62.7692   82.3430   14.6183 O.3     1  UNL1       -0.3794
     23 C          62.7560   80.7202   12.5894 C.3     1  UNL1        0.1668
     24 O          62.2901   79.6082   13.4819 O.3     1  UNL1       -0.3795
     25 H          64.5516   84.9057   12.5131 H       1  UNL1        0.2106
     26 H          62.4721   81.5253   15.0473 H       1  UNL1        0.2105
     27 H          62.1944   79.9398   14.3884 H       1  UNL1        0.2105
     28 O          61.9069   88.2556   12.5142 O.3     1  UNL1       -0.4441
     29 C          62.9123   89.3655   12.6009 C.ar    1  UNL1        0.2144
     30 C          63.7566   89.5181   13.8313 C.ar    1  UNL1        0.1823
     31 O          64.7619   90.6279   13.9182 O.2     1  UNL1       -0.4500
     32 C          64.9230   91.5852   12.7745 C.ar    1  UNL1        0.1545
     33 C          65.9283   92.6950   12.8614 C.ar    1  UNL1        0.0744
     34 C          66.0893   93.6522   11.7178 C.ar    1  UNL1        0.1397
     35 O          67.0947   94.7621   11.8046 O.3     1  UNL1       -0.5053
     36 C          65.2450   93.4996   10.4874 C.ar    1  UNL1        0.0735
     37 C          64.2397   92.3898   10.4006 C.ar    1  UNL1        0.1428
     38 O          63.3954   92.2372    9.1702 O.3     1  UNL1       -0.5052
     39 C          64.0787   91.4326   11.5442 C.ar    1  UNL1        0.1104
     40 C          63.0733   90.3227   11.4574 C.ar    1  UNL1        0.2382
     41 O          62.2290   90.1701   10.2270 O.2     1  UNL1       -0.2830
     42 H          67.6221   94.8575   12.5731 H       1  UNL1        0.2922
     43 H          63.4960   92.8351    8.4558 H       1  UNL1        0.2922
     44 C          63.5955   88.5609   14.9750 C.ar    1  UNL1        0.0409
     45 C          63.0059   89.0330   16.2709 C.ar    1  UNL1        0.0064
     46 C          62.8449   88.0758   17.4144 C.ar    1  UNL1        0.0399
     47 C          63.2734   86.6464   17.2620 C.ar    1  UNL1        0.1675
     48 O          63.1123   85.6891   18.4056 O.3     1  UNL1       -0.5029
     49 C          63.8630   86.1742   15.9661 C.ar    1  UNL1        0.1676
     50 O          64.2915   84.7448   15.8137 O.3     1  UNL1       -0.5029
     51 C          64.0240   87.1315   14.8226 C.ar    1  UNL1        0.0429
     52 H          62.7441   85.9840   19.2151 H       1  UNL1        0.2923
     53 H          64.1909   84.1469   16.5280 H       1  UNL1        0.2923
@<TRIPOS>BOND
     1    16    15    1
     2    16    17    1
     3    17    18    1
     4    18    14    1
     5    14    13    1
     6     1    13    1
     7     1     2    1
     8     2     3    1
     9     3    28    1
    10    28    29    1
    11    29    30   ar
    12    30    44    1
    13    44    45   ar
    14    45    46   ar
    15    46    47   ar
    16    47    48    1
    17    47    49   ar
    18    49    50    1
    19    49    51   ar
    20    30    31   ar
    21    31    32   ar
    22    32    33   ar
    23    33    34   ar
    24    34    35    1
    25    34    36   ar
    26    36    37   ar
    27    37    38    1
    28    37    39   ar
    29    39    40   ar
    30    40    41    2
    31     3     4    1
    32     4     5    1
    33     4     6    1
    34     6     7    1
    35     6     8    1
    36     8     9    1
    37    18    19    1
    38    19    20    1
    39    19    21    1
    40    21    22    1
    41    21    23    1
    42    23    24    1
    43    23    16    1
    44     8     1    1
    45    40    29   ar
    46    51    44   ar
    47    39    32   ar
    48    48    52    1
    49    50    53    1
    50    35    42    1
    51    38    43    1
    52     5    10    1
    53     7    11    1
    54     9    12    1
    55    20    25    1
    56    22    26    1
    57    24    27    1
@<TRIPOS>MOLECULE
*****
 53 57 0 0 0
SMALL
GASTEIGER

@<TRIPOS>ATOM
      1 C          63.8019   86.0732   15.5017 C.3     1  UNL1        0.1776
      2 O          64.1646   86.8049   14.2436 O.3     1  UNL1       -0.3160
      3 C          64.0839   88.3021   14.1969 C.3     1  UNL1        0.3182
      4 C          63.6406   89.0674   15.4084 C.3     1  UNL1        0.2105
      5 O          63.5599   90.5645   15.3617 O.3     1  UNL1       -0.3766
      6 C          63.2779   88.3357   16.6666 C.3     1  UNL1        0.1728
      7 O          62.8346   89.1010   17.8780 O.3     1  UNL1       -0.3793
      8 C          63.3585   86.8386   16.7132 C.3     1  UNL1        0.1695
      9 O          62.9958   86.1068   17.9714 O.3     1  UNL1       -0.3794
     10 H          63.8263   90.8753   14.4823 H       1  UNL1        0.2107
     11 H          62.6397   88.4814   18.5985 H       1  UNL1        0.2105
     12 H          63.1021   85.1527   17.8326 H       1  UNL1        0.2105
     13 C          63.8825   84.5761   15.5484 C.3     1  UNL1        0.1769
     14 O          62.7362   83.7473   15.0492 O.3     1  UNL1       -0.3259
     15 C          63.7976   83.6651    9.9633 C.3     1  UNL1        0.0348
     16 C          63.3944   82.9487   11.2179 C.3     1  UNL1        0.1471
     17 O          63.2669   83.7062   12.5062 O.3     1  UNL1       -0.3286
     18 C          62.8637   82.9897   13.7608 C.3     1  UNL1        0.2657
     19 C          62.5878   81.5157   13.7271 C.3     1  UNL1        0.1964
     20 O          62.1845   80.7993   14.9817 O.3     1  UNL1       -0.3775
     21 C          62.7152   80.7582   12.4388 C.3     1  UNL1        0.1714
     22 O          62.4394   79.2841   12.4050 O.3     1  UNL1       -0.3794
     23 C          63.1185   81.4747   11.1842 C.3     1  UNL1        0.1668
     24 O          63.2459   80.7170    9.8958 O.3     1  UNL1       -0.3795
     25 H          62.7724   81.0619   15.7072 H       1  UNL1        0.2106
     26 H          62.5667   78.9519   11.5026 H       1  UNL1        0.2105
     27 H          63.0343   79.7827   10.0478 H       1  UNL1        0.2105
     28 O          64.4466   89.0339   12.9387 O.3     1  UNL1       -0.4441
     29 C          63.4425   89.1664   11.8322 C.ar    1  UNL1        0.2144
     30 C          63.3192   90.4596   11.0823 C.ar    1  UNL1        0.1823
     31 O          62.3152   90.5921    9.9758 O.2     1  UNL1       -0.4500
     32 C          61.4344   89.4314    9.6192 C.ar    1  UNL1        0.1545
     33 C          60.4304   89.5640    8.5127 C.ar    1  UNL1        0.0744
     34 C          59.5497   88.4033    8.1562 C.ar    1  UNL1        0.1397
     35 O          58.5456   88.5358    7.0497 O.3     1  UNL1       -0.5053
     36 C          59.6730   87.1101    8.9062 C.ar    1  UNL1        0.0735
     37 C          60.6770   86.9776   10.0126 C.ar    1  UNL1        0.1428
     38 O          60.8002   85.6844   10.7626 O.3     1  UNL1       -0.5052
     39 C          61.5577   88.1382   10.3692 C.ar    1  UNL1        0.1104
     40 C          62.5618   88.0057   11.4757 C.ar    1  UNL1        0.2382
     41 O          62.6851   86.7125   12.2256 O.2     1  UNL1       -0.2830
     42 H          58.4686   89.3436    6.5812 H       1  UNL1        0.2922
     43 H          60.2501   84.9593   10.5399 H       1  UNL1        0.2922
     44 C          64.2000   91.6203   11.4388 C.ar    1  UNL1        0.0409
     45 C          64.6610   92.5677   10.3712 C.ar    1  UNL1        0.0064
     46 C          65.5418   93.7283   10.7278 C.ar    1  UNL1        0.0399
     47 C          65.9615   93.9415   12.1520 C.ar    1  UNL1        0.1675
     48 O          66.8423   95.1022   12.5086 O.3     1  UNL1       -0.5029
     49 C          65.5005   92.9940   13.2196 C.ar    1  UNL1        0.1676
     50 O          65.9203   93.2072   14.6438 O.3     1  UNL1       -0.5029
     51 C          64.6198   91.8334   12.8630 C.ar    1  UNL1        0.0429
     52 H          67.1303   95.6940   11.8417 H       1  UNL1        0.2923
     53 H          66.4705   93.9322   14.8666 H       1  UNL1        0.2923
@<TRIPOS>BOND
     1    16    15    1
     2    16    17    1
     3    17    18    1
     4    18    14    1
     5    14    13    1
     6     1    13    1
     7     1     2    1
     8     2     3    1
     9     3    28    1
    10    28    29    1
    11    29    30   ar
    12    30    44    1
    13    44    45   ar
    14    45    46   ar
    15    46    47   ar
    16    47    48    1
    17    47    49   ar
    18    49    50    1
    19    49    51   ar
    20    30    31   ar
    21    31    32   ar
    22    32    33   ar
    23    33    34   ar
    24    34    35    1
    25    34    36   ar
    26    36    37   ar
    27    37    38    1
    28    37    39   ar
    29    39    40   ar
    30    40    41    2
    31     3     4    1
    32     4     5    1
    33     4     6    1
    34     6     7    1
    35     6     8    1
    36     8     9    1
    37    18    19    1
    38    19    20    1
    39    19    21    1
    40    21    22    1
    41    21    23    1
    42    23    24    1
    43    23    16    1
    44     8     1    1
    45    40    29   ar
    46    51    44   ar
    47    39    32   ar
    48    48    52    1
    49    50    53    1
    50    35    42    1
    51    38    43    1
    52     5    10    1
    53     7    11    1
    54     9    12    1
    55    20    25    1
    56    22    26    1
    57    24    27    1
@<TRIPOS>MOLECULE
*****
 53 57 0 0 0
SMALL
GASTEIGER

@<TRIPOS>ATOM
      1 C          64.2499   86.4553   14.8026 C.3     1  UNL1        0.1776
      2 O          63.6794   87.5122   13.9040 O.3     1  UNL1       -0.3160
      3 C          62.8316   88.6080   14.4791 C.3     1  UNL1        0.3182
      4 C          62.5544   88.6468   15.9527 C.3     1  UNL1        0.2105
      5 O          61.7066   89.7426   16.5277 O.3     1  UNL1       -0.3766
      6 C          63.1249   87.5900   16.8513 C.3     1  UNL1        0.1728
      7 O          62.8477   87.6288   18.3249 O.3     1  UNL1       -0.3793
      8 C          63.9727   86.4942   16.2763 C.3     1  UNL1        0.1695
      9 O          64.5432   85.4374   17.1749 O.3     1  UNL1       -0.3794
     10 H          61.4207   90.3371   15.8166 H       1  UNL1        0.2107
     11 H          63.2872   86.8794   18.7565 H       1  UNL1        0.2105
     12 H          65.0622   84.8102   16.6475 H       1  UNL1        0.2105
     13 C          65.0977   85.3596   14.2276 C.3     1  UNL1        0.1769
     14 O          64.7358   83.9246   14.4722 O.3     1  UNL1       -0.3259
     15 C          64.2072   83.0831    9.3719 C.3     1  UNL1        0.0348
     16 C          63.9798   82.6510   10.7902 C.3     1  UNL1        0.1471
     17 O          64.4715   83.5038   11.9220 O.3     1  UNL1       -0.3286
     18 C          64.2441   83.0718   13.3403 C.3     1  UNL1        0.2657
     19 C          63.5251   81.7869   13.6269 C.3     1  UNL1        0.1964
     20 O          63.2977   81.3548   15.0452 O.3     1  UNL1       -0.3775
     21 C          63.0334   80.9341   12.4951 C.3     1  UNL1        0.1714
     22 O          62.3144   79.6492   12.7816 O.3     1  UNL1       -0.3794
     23 C          63.2608   81.3662   11.0768 C.3     1  UNL1        0.1668
     24 O          62.7691   80.5133    9.9450 O.3     1  UNL1       -0.3795
     25 H          64.1208   81.4532   15.5490 H       1  UNL1        0.2106
     26 H          62.0664   79.2242   11.9457 H       1  UNL1        0.2105
     27 H          62.3300   79.7251   10.3011 H       1  UNL1        0.2105
     28 O          62.2611   89.6649   13.5805 O.3     1  UNL1       -0.4441
     29 C          63.1736   90.5026   12.7345 C.ar    1  UNL1        0.2144
     30 C          63.1347   90.3787   11.2401 C.ar    1  UNL1        0.1823
     31 O          64.0471   91.2163   10.3941 O.2     1  UNL1       -0.4500
     32 C          64.9985   92.1780   11.0424 C.ar    1  UNL1        0.1545
     33 C          65.9109   93.0156   10.1964 C.ar    1  UNL1        0.0744
     34 C          66.8622   93.9772   10.8448 C.ar    1  UNL1        0.1397
     35 O          67.7747   94.8149    9.9988 O.3     1  UNL1       -0.5053
     36 C          66.9010   94.1011   12.3392 C.ar    1  UNL1        0.0735
     37 C          65.9886   93.2634   13.1852 C.ar    1  UNL1        0.1428
     38 O          66.0274   93.3874   14.6795 O.3     1  UNL1       -0.5052
     39 C          65.0373   92.3019   12.5368 C.ar    1  UNL1        0.1104
     40 C          64.1248   91.4642   13.3828 C.ar    1  UNL1        0.2382
     41 O          64.1637   91.5881   14.8772 O.2     1  UNL1       -0.2830
     42 H          67.7504   94.7375    9.0653 H       1  UNL1        0.2922
     43 H          66.6217   93.9881   15.0845 H       1  UNL1        0.2922
     44 C          62.1834   89.4170   10.5918 C.ar    1  UNL1        0.0409
     45 C          61.0653   89.9313    9.7343 C.ar    1  UNL1        0.0064
     46 C          60.1140   88.9697    9.0860 C.ar    1  UNL1        0.0399
     47 C          60.2808   87.4938    9.2952 C.ar    1  UNL1        0.1675
     48 O          59.3295   86.5321    8.6468 O.3     1  UNL1       -0.5029
     49 C          61.3989   86.9795   10.1526 C.ar    1  UNL1        0.1676
     50 O          61.5658   85.5035   10.3618 O.3     1  UNL1       -0.5029
     51 C          62.3502   87.9411   10.8009 C.ar    1  UNL1        0.0429
     52 H          58.6310   86.8534    8.1112 H       1  UNL1        0.2923
     53 H          60.9715   84.9028    9.9568 H       1  UNL1        0.2923
@<TRIPOS>BOND
     1    16    15    1
     2    16    17    1
     3    17    18    1
     4    18    14    1
     5    14    13    1
     6     1    13    1
     7     1     2    1
     8     2     3    1
     9     3    28    1
    10    28    29    1
    11    29    30   ar
    12    30    44    1
    13    44    45   ar
    14    45    46   ar
    15    46    47   ar
    16    47    48    1
    17    47    49   ar
    18    49    50    1
    19    49    51   ar
    20    30    31   ar
    21    31    32   ar
    22    32    33   ar
    23    33    34   ar
    24    34    35    1
    25    34    36   ar
    26    36    37   ar
    27    37    38    1
    28    37    39   ar
    29    39    40   ar
    30    40    41    2
    31     3     4    1
    32     4     5    1
    33     4     6    1
    34     6     7    1
    35     6     8    1
    36     8     9    1
    37    18    19    1
    38    19    20    1
    39    19    21    1
    40    21    22    1
    41    21    23    1
    42    23    24    1
    43    23    16    1
    44     8     1    1
    45    40    29   ar
    46    51    44   ar
    47    39    32   ar
    48    48    52    1
    49    50    53    1
    50    35    42    1
    51    38    43    1
    52     5    10    1
    53     7    11    1
    54     9    12    1
    55    20    25    1
    56    22    26    1
    57    24    27    1
@<TRIPOS>MOLECULE
*****
 53 57 0 0 0
SMALL
GASTEIGER

@<TRIPOS>ATOM
      1 C          62.2851   85.8231    9.5523 C.3     1  UNL1        0.1776
      2 O          62.5326   86.5553   10.8378 O.3     1  UNL1       -0.3160
      3 C          61.6793   87.7326   11.2067 C.3     1  UNL1        0.3182
      4 C          60.5785   88.1775   10.2901 C.3     1  UNL1        0.2105
      5 O          59.7252   89.3547   10.6589 O.3     1  UNL1       -0.3766
      6 C          60.3310   87.4452    9.0045 C.3     1  UNL1        0.1728
      7 O          59.2302   87.8902    8.0879 O.3     1  UNL1       -0.3793
      8 C          61.1842   86.2681    8.6357 C.3     1  UNL1        0.1695
      9 O          60.9367   85.5358    7.3501 O.3     1  UNL1       -0.3794
     10 H          60.0159   89.7095   11.5136 H       1  UNL1        0.2107
     11 H          59.2062   87.3140    7.3080 H       1  UNL1        0.2105
     12 H          61.5712   84.8070    7.2659 H       1  UNL1        0.2105
     13 C          63.1384   84.6459    9.1834 C.3     1  UNL1        0.1769
     14 O          64.0304   84.0148   10.2110 O.3     1  UNL1       -0.3259
     15 C          61.9820   84.0922   14.9858 C.3     1  UNL1        0.0348
     16 C          62.4078   83.3282   13.7672 C.3     1  UNL1        0.1471
     17 O          63.0062   84.0534   12.5985 O.3     1  UNL1       -0.3286
     18 C          63.4320   83.2895   11.3798 C.3     1  UNL1        0.2657
     19 C          63.2593   81.8003   11.3299 C.3     1  UNL1        0.1964
     20 O          63.6851   81.0363   10.1113 O.3     1  UNL1       -0.3775
     21 C          62.6610   81.0751   12.4986 C.3     1  UNL1        0.1714
     22 O          62.4883   79.5859   12.4488 O.3     1  UNL1       -0.3794
     23 C          62.2352   81.8391   13.7173 C.3     1  UNL1        0.1668
     24 O          61.6368   81.1138   14.8860 O.3     1  UNL1       -0.3795
     25 H          63.3575   81.4862    9.3168 H       1  UNL1        0.2106
     26 H          62.0906   79.2785   13.2784 H       1  UNL1        0.2105
     27 H          61.5969   80.1643   14.6914 H       1  UNL1        0.2105
     28 O          61.9268   88.4648   12.4922 O.3     1  UNL1       -0.4441
     29 C          62.9540   89.5565   12.5477 C.ar    1  UNL1        0.2144
     30 C          63.8357   89.6962   13.7532 C.ar    1  UNL1        0.1823
     31 O          64.8628   90.7879   13.8087 O.2     1  UNL1       -0.4500
     32 C          65.0084   91.7400   12.6587 C.ar    1  UNL1        0.1545
     33 C          66.0356   92.8316   12.7142 C.ar    1  UNL1        0.0744
     34 C          66.1811   93.7836   11.5643 C.ar    1  UNL1        0.1397
     35 O          67.2083   94.8754   11.6197 O.3     1  UNL1       -0.5053
     36 C          65.2994   93.6440   10.3588 C.ar    1  UNL1        0.0735
     37 C          64.2723   92.5523   10.3033 C.ar    1  UNL1        0.1428
     38 O          63.3906   92.4127    9.0978 O.3     1  UNL1       -0.5052
     39 C          64.1267   91.6003   11.4532 C.ar    1  UNL1        0.1104
     40 C          63.0995   90.5086   11.3977 C.ar    1  UNL1        0.2382
     41 O          62.2179   90.3689   10.1923 O.2     1  UNL1       -0.2830
     42 H          67.7591   94.9626   12.3728 H       1  UNL1        0.2922
     43 H          63.4815   93.0074    8.3794 H       1  UNL1        0.2922
     44 C          63.6901   88.7441   14.9032 C.ar    1  UNL1        0.0409
     45 C          62.9650   89.1725   16.1444 C.ar    1  UNL1        0.0064
     46 C          62.8195   88.2205   17.2943 C.ar    1  UNL1        0.0399
     47 C          63.3990   86.8400   17.2030 C.ar    1  UNL1        0.1675
     48 O          63.2535   85.8879   18.3530 O.3     1  UNL1       -0.5029
     49 C          64.1241   86.4115   15.9618 C.ar    1  UNL1        0.1676
     50 O          64.7037   85.0310   15.8705 O.3     1  UNL1       -0.5029
     51 C          64.2697   87.3636   14.8119 C.ar    1  UNL1        0.0429
     52 H          62.8005   86.1555   19.1283 H       1  UNL1        0.2923
     53 H          64.6128   84.4363   16.5888 H       1  UNL1        0.2923
@<TRIPOS>BOND
     1    16    15    1
     2    16    17    1
     3    17    18    1
     4    18    14    1
     5    14    13    1
     6     1    13    1
     7     1     2    1
     8     2     3    1
     9     3    28    1
    10    28    29    1
    11    29    30   ar
    12    30    44    1
    13    44    45   ar
    14    45    46   ar
    15    46    47   ar
    16    47    48    1
    17    47    49   ar
    18    49    50    1
    19    49    51   ar
    20    30    31   ar
    21    31    32   ar
    22    32    33   ar
    23    33    34   ar
    24    34    35    1
    25    34    36   ar
    26    36    37   ar
    27    37    38    1
    28    37    39   ar
    29    39    40   ar
    30    40    41    2
    31     3     4    1
    32     4     5    1
    33     4     6    1
    34     6     7    1
    35     6     8    1
    36     8     9    1
    37    18    19    1
    38    19    20    1
    39    19    21    1
    40    21    22    1
    41    21    23    1
    42    23    24    1
    43    23    16    1
    44     8     1    1
    45    40    29   ar
    46    51    44   ar
    47    39    32   ar
    48    48    52    1
    49    50    53    1
    50    35    42    1
    51    38    43    1
    52     5    10    1
    53     7    11    1
    54     9    12    1
    55    20    25    1
    56    22    26    1
    57    24    27    1
@<TRIPOS>MOLECULE
*****
 53 57 0 0 0
SMALL
GASTEIGER

@<TRIPOS>ATOM
      1 C          61.9813   86.9503   10.1814 C.3     1  UNL1        0.1776
      2 O          62.2872   87.4311   11.5689 O.3     1  UNL1       -0.3160
      3 C          61.8117   88.7816   12.0165 C.3     1  UNL1        0.3182
      4 C          61.0305   89.6511   11.0766 C.3     1  UNL1        0.2105
      5 O          60.5551   91.0015   11.5242 O.3     1  UNL1       -0.3766
      6 C          60.7246   89.1703    9.6890 C.3     1  UNL1        0.1728
      7 O          59.9433   90.0398    8.7491 O.3     1  UNL1       -0.3793
      8 C          61.2000   87.8199    9.2414 C.3     1  UNL1        0.1695
      9 O          60.8941   87.3390    7.8539 O.3     1  UNL1       -0.3794
     10 H          60.8353   91.1558   12.4399 H       1  UNL1        0.2107
     11 H          59.8346   89.5826    7.9006 H       1  UNL1        0.2105
     12 H          61.2705   86.4539    7.7281 H       1  UNL1        0.2105
     13 C          62.4567   85.5999    9.7337 C.3     1  UNL1        0.1769
     14 O          63.5069   84.8751   10.5223 O.3     1  UNL1       -0.3259
     15 C          63.1348   79.6923   10.5143 C.3     1  UNL1        0.0348
     16 C          62.9796   81.0047   11.2239 C.3     1  UNL1        0.1471
     17 O          63.3208   82.2837   10.5184 O.3     1  UNL1       -0.3286
     18 C          63.1656   83.5961   11.2279 C.3     1  UNL1        0.2657
     19 C          62.6692   83.6296   12.6429 C.3     1  UNL1        0.1964
     20 O          62.5140   84.9420   13.3525 O.3     1  UNL1       -0.3775
     21 C          62.3279   82.3506   13.3484 C.3     1  UNL1        0.1714
     22 O          61.8315   82.3840   14.7636 O.3     1  UNL1       -0.3794
     23 C          62.4831   81.0382   12.6389 C.3     1  UNL1        0.1668
     24 O          62.1419   79.7592   13.3445 O.3     1  UNL1       -0.3795
     25 H          63.3083   85.4809   13.2129 H       1  UNL1        0.2106
     26 H          61.6590   81.4791   15.0672 H       1  UNL1        0.2105
     27 H          61.8389   79.9573   14.2444 H       1  UNL1        0.2105
     28 O          62.1176   89.2624   13.4040 O.3     1  UNL1       -0.4441
     29 C          63.4783   89.8050   13.7268 C.ar    1  UNL1        0.2144
     30 C          64.3468   89.1041   14.7291 C.ar    1  UNL1        0.1823
     31 O          65.7074   89.6465   15.0519 O.2     1  UNL1       -0.4500
     32 C          66.1998   90.8899   14.3725 C.ar    1  UNL1        0.1545
     33 C          67.5604   91.4324   14.6953 C.ar    1  UNL1        0.0744
     34 C          68.0527   92.6757   14.0158 C.ar    1  UNL1        0.1397
     35 O          69.4134   93.2183   14.3386 O.3     1  UNL1       -0.5053
     36 C          67.1843   93.3766   13.0135 C.ar    1  UNL1        0.0735
     37 C          65.8236   92.8342   12.6907 C.ar    1  UNL1        0.1428
     38 O          64.9552   93.5351   11.6884 O.3     1  UNL1       -0.5052
     39 C          65.3313   91.5908   13.3701 C.ar    1  UNL1        0.1104
     40 C          63.9706   91.0483   13.0473 C.ar    1  UNL1        0.2382
     41 O          63.1022   91.7492   12.0450 O.2     1  UNL1       -0.2830
     42 H          69.9559   92.7805   14.9647 H       1  UNL1        0.2922
     43 H          65.2627   94.3117   11.2639 H       1  UNL1        0.2922
     44 C          63.8544   87.8607   15.4086 C.ar    1  UNL1        0.0409
     45 C          62.7736   87.9501   16.4448 C.ar    1  UNL1        0.0064
     46 C          62.2813   86.7067   17.1242 C.ar    1  UNL1        0.0399
     47 C          62.8699   85.3739   16.7675 C.ar    1  UNL1        0.1675
     48 O          62.3776   84.1305   17.4470 O.3     1  UNL1       -0.5029
     49 C          63.9507   85.2845   15.7313 C.ar    1  UNL1        0.1676
     50 O          64.5393   83.9518   15.3745 O.3     1  UNL1       -0.5029
     51 C          64.4430   86.5279   15.0518 C.ar    1  UNL1        0.0429
     52 H          61.7024   84.1864   18.0942 H       1  UNL1        0.2923
     53 H          64.2318   83.1751   15.7989 H       1  UNL1        0.2923
@<TRIPOS>BOND
     1    16    15    1
     2    16    17    1
     3    17    18    1
     4    18    14    1
     5    14    13    1
     6     1    13    1
     7     1     2    1
     8     2     3    1
     9     3    28    1
    10    28    29    1
    11    29    30   ar
    12    30    44    1
    13    44    45   ar
    14    45    46   ar
    15    46    47   ar
    16    47    48    1
    17    47    49   ar
    18    49    50    1
    19    49    51   ar
    20    30    31   ar
    21    31    32   ar
    22    32    33   ar
    23    33    34   ar
    24    34    35    1
    25    34    36   ar
    26    36    37   ar
    27    37    38    1
    28    37    39   ar
    29    39    40   ar
    30    40    41    2
    31     3     4    1
    32     4     5    1
    33     4     6    1
    34     6     7    1
    35     6     8    1
    36     8     9    1
    37    18    19    1
    38    19    20    1
    39    19    21    1
    40    21    22    1
    41    21    23    1
    42    23    24    1
    43    23    16    1
    44     8     1    1
    45    40    29   ar
    46    51    44   ar
    47    39    32   ar
    48    48    52    1
    49    50    53    1
    50    35    42    1
    51    38    43    1
    52     5    10    1
    53     7    11    1
    54     9    12    1
    55    20    25    1
    56    22    26    1
    57    24    27    1
@<TRIPOS>MOLECULE
*****
 53 57 0 0 0
SMALL
GASTEIGER

@<TRIPOS>ATOM
      1 C          64.1078   86.3039   14.5576 C.3     1  UNL1        0.1776
      2 O          63.5387   87.3913   13.6952 O.3     1  UNL1       -0.3160
      3 C          62.8160   88.5459   14.3235 C.3     1  UNL1        0.3182
      4 C          62.6625   88.6131   15.8141 C.3     1  UNL1        0.2105
      5 O          61.9398   89.7677   16.4423 O.3     1  UNL1       -0.3766
      6 C          63.2316   87.5258   16.6765 C.3     1  UNL1        0.1728
      7 O          63.0781   87.5930   18.1670 O.3     1  UNL1       -0.3793
      8 C          63.9543   86.3712   16.0483 C.3     1  UNL1        0.1695
      9 O          64.5234   85.2838   16.9107 O.3     1  UNL1       -0.3794
     10 H          61.6378   90.3757   15.7494 H       1  UNL1        0.2107
     11 H          63.4997   86.8183   18.5708 H       1  UNL1        0.2105
     12 H          64.9545   84.6194   16.3507 H       1  UNL1        0.2105
     13 C          64.8305   85.1494   13.9294 C.3     1  UNL1        0.1769
     14 O          64.6732   83.7689   14.4948 O.3     1  UNL1       -0.3259
     15 C          61.7704   79.4804   14.0674 C.3     1  UNL1        0.0348
     16 C          62.6362   80.5311   13.4378 C.3     1  UNL1        0.1471
     17 O          63.2218   81.6246   14.2811 O.3     1  UNL1       -0.3286
     18 C          64.0876   82.6753   13.6514 C.3     1  UNL1        0.2657
     19 C          64.3679   82.6324   12.1785 C.3     1  UNL1        0.1964
     20 O          65.2337   83.6831   11.5488 O.3     1  UNL1       -0.3775
     21 C          63.7823   81.5388   11.3352 C.3     1  UNL1        0.1714
     22 O          64.0625   81.4959    9.8622 O.3     1  UNL1       -0.3794
     23 C          62.9165   80.4882   11.9649 C.3     1  UNL1        0.1668
     24 O          62.3309   79.3945   11.1215 O.3     1  UNL1       -0.3795
     25 H          64.9572   84.5591   11.8602 H       1  UNL1        0.2106
     26 H          63.6121   80.7318    9.4695 H       1  UNL1        0.2105
     27 H          62.6081   79.5136   10.1996 H       1  UNL1        0.2105
     28 O          62.2469   89.6333   13.4611 O.3     1  UNL1       -0.4441
     29 C          63.1593   90.4879   12.6321 C.ar    1  UNL1        0.2144
     30 C          63.1287   90.3855   11.1359 C.ar    1  UNL1        0.1823
     31 O          64.0410   91.2400   10.3068 O.2     1  UNL1       -0.4500
     32 C          64.9839   92.1971   10.9740 C.ar    1  UNL1        0.1545
     33 C          65.8962   93.0517   10.1449 C.ar    1  UNL1        0.0744
     34 C          66.8391   94.0087   10.8120 C.ar    1  UNL1        0.1397
     35 O          67.7515   94.8633    9.9830 O.3     1  UNL1       -0.5053
     36 C          66.8696   94.1112   12.3082 C.ar    1  UNL1        0.0735
     37 C          65.9573   93.2566   13.1373 C.ar    1  UNL1        0.1428
     38 O          65.9879   93.3591   14.6335 O.3     1  UNL1       -0.5052
     39 C          65.0145   92.2996   12.4701 C.ar    1  UNL1        0.1104
     40 C          64.1021   91.4449   13.2992 C.ar    1  UNL1        0.2382
     41 O          64.1326   91.5474   14.7954 O.2     1  UNL1       -0.2830
     42 H          67.7324   94.7993    9.0484 H       1  UNL1        0.2922
     43 H          66.5768   93.9569   15.0502 H       1  UNL1        0.2922
     44 C          62.1858   89.4284   10.4687 C.ar    1  UNL1        0.0409
     45 C          61.0321   89.9501    9.6646 C.ar    1  UNL1        0.0064
     46 C          60.0893   88.9930    8.9975 C.ar    1  UNL1        0.0399
     47 C          60.3001   87.5142    9.1346 C.ar    1  UNL1        0.1675
     48 O          59.3572   86.5572    8.4675 O.3     1  UNL1       -0.5029
     49 C          61.4539   86.9926    9.9388 C.ar    1  UNL1        0.1676
     50 O          61.6647   85.5138   10.0759 O.3     1  UNL1       -0.5029
     51 C          62.3967   87.9496   10.6058 C.ar    1  UNL1        0.0429
     52 H          58.6365   86.8831    7.9651 H       1  UNL1        0.2923
     53 H          61.0758   84.9159    9.6591 H       1  UNL1        0.2923
@<TRIPOS>BOND
     1    16    15    1
     2    16    17    1
     3    17    18    1
     4    18    14    1
     5    14    13    1
     6     1    13    1
     7     1     2    1
     8     2     3    1
     9     3    28    1
    10    28    29    1
    11    29    30   ar
    12    30    44    1
    13    44    45   ar
    14    45    46   ar
    15    46    47   ar
    16    47    48    1
    17    47    49   ar
    18    49    50    1
    19    49    51   ar
    20    30    31   ar
    21    31    32   ar
    22    32    33   ar
    23    33    34   ar
    24    34    35    1
    25    34    36   ar
    26    36    37   ar
    27    37    38    1
    28    37    39   ar
    29    39    40   ar
    30    40    41    2
    31     3     4    1
    32     4     5    1
    33     4     6    1
    34     6     7    1
    35     6     8    1
    36     8     9    1
    37    18    19    1
    38    19    20    1
    39    19    21    1
    40    21    22    1
    41    21    23    1
    42    23    24    1
    43    23    16    1
    44     8     1    1
    45    40    29   ar
    46    51    44   ar
    47    39    32   ar
    48    48    52    1
    49    50    53    1
    50    35    42    1
    51    38    43    1
    52     5    10    1
    53     7    11    1
    54     9    12    1
    55    20    25    1
    56    22    26    1
    57    24    27    1
