@<TRIPOS>MOLECULE
*****
 31 34 0 0 0
SMALL
GASTEIGER

@<TRIPOS>ATOM
      1 C          63.5015   86.9715   15.2044 C.ar    1  UNL1        0.1646
      2 N          64.0437   87.8206   14.0931 N.ar    1  UNL1       -0.2239
      3 C          64.1380   89.2321   14.5918 C.ar    1  UNL1        0.0898
      4 C          63.6541   89.2554   16.0115 C.ar    1  UNL1        0.0572
      5 S          63.2607   87.8583   16.3901 S.2     1  UNL1       -0.0509
      6 C          64.6300   90.4130   13.8085 C.ar    1  UNL1        0.0206
      7 C          63.9606   90.7899   12.5202 C.ar    1  UNL1        0.0032
      8 C          64.4526   91.9708   11.7370 C.ar    1  UNL1        0.0199
      9 C          65.6138   92.7748   12.2421 C.ar    1  UNL1        0.0929
     10 C          66.2831   92.3979   13.5304 C.ar    1  UNL1        0.1562
     11 F          67.4444   93.2018   14.0356 F       1  UNL1       -0.2026
     12 C          65.7912   91.2170   14.3137 C.ar    1  UNL1        0.0327
     13 N          66.1057   93.9557   11.4588 N.ar    1  UNL1       -0.2846
     14 C          66.1811   95.3707   11.9510 C.ar    1  UNL1        0.1826
     15 N          66.7305   96.2185   10.8422 N.ar    1  UNL1       -0.2280
     16 C          66.9948   95.3275    9.6648 C.ar    1  UNL1        0.0786
     17 C          67.5480   95.7591    8.3390 C.3     1  UNL1        0.0538
     18 C          66.6086   93.9290   10.0459 C.ar    1  UNL1        0.0963
     19 N          63.2450   85.4950   15.1412 N.pl3   1  UNL1       -0.2784
     20 H          63.1966   84.9678   15.9712 H       1  UNL1        0.1555
     21 N          62.6473   83.3965   13.5972 N.ar    1  UNL1       -0.2380
     22 N          62.5911   83.1492   12.1187 N.ar    1  UNL1       -0.1726
     23 C          62.9716   84.4216   11.4212 C.ar    1  UNL1        0.0807
     24 C          63.2628   85.4551   12.4685 C.ar    1  UNL1        0.0505
     25 C          63.0624   84.8216   13.8133 C.ar    1  UNL1        0.1317
     26 C          63.0474   84.6247    9.9370 C.3     1  UNL1        0.0372
     27 C          62.1606   85.8286   10.0564 C.3     1  UNL1        0.0060
     28 C          63.9342   83.4208    9.8176 C.3     1  UNL1        0.0060
     29 C          63.1233   84.8277    8.4527 C.3     1  UNL1        0.0060
     30 C          61.6044   81.1332   14.3318 C.3     1  UNL1        0.0285
     31 C          62.3419   82.3946   14.6709 C.3     1  UNL1        0.1289
@<TRIPOS>BOND
     1    30    31    1
     2    31    21    1
     3    21    22   ar
     4    22    23   ar
     5    23    26    1
     6    26    27    1
     7    26    28    1
     8    26    29    1
     9    23    24   ar
    10    24    25   ar
    11    25    19    1
    12    19     1    1
    13     1     2   ar
    14     2     3   ar
    15     3     6    1
    16     6     7   ar
    17     7     8   ar
    18     8     9   ar
    19     9    13    1
    20    13    14   ar
    21    14    15   ar
    22    15    16   ar
    23    16    17    1
    24    16    18   ar
    25     9    10   ar
    26    10    11    1
    27    10    12   ar
    28     3     4   ar
    29     4     5   ar
    30    25    21   ar
    31     5     1   ar
    32    12     6   ar
    33    18    13   ar
    34    19    20    1
@<TRIPOS>MOLECULE
*****
 31 34 0 0 0
SMALL
GASTEIGER

@<TRIPOS>ATOM
      1 C          63.8346   90.0719   13.5195 C.ar    1  UNL1        0.1646
      2 N          63.5052   88.8335   12.7397 N.ar    1  UNL1       -0.2239
      3 C          63.7607   87.6481   13.6226 C.ar    1  UNL1        0.0898
      4 C          64.2481   88.1539   14.9481 C.ar    1  UNL1        0.0572
      5 S          64.2938   89.6518   14.8843 S.2     1  UNL1       -0.0509
      6 C          63.5635   86.2095   13.2463 C.ar    1  UNL1        0.0206
      7 C          62.8638   85.8582   11.9669 C.ar    1  UNL1        0.0032
      8 C          62.6667   84.4196   11.5905 C.ar    1  UNL1        0.0199
      9 C          63.1692   83.3325   12.4936 C.ar    1  UNL1        0.0929
     10 C          63.8689   83.6838   13.7730 C.ar    1  UNL1        0.1562
     11 F          64.3714   82.5967   14.6761 F       1  UNL1       -0.2026
     12 C          64.0661   85.1224   14.1493 C.ar    1  UNL1        0.0327
     13 N          62.9720   81.8938   12.1172 N.ar    1  UNL1       -0.2846
     14 C          62.5812   80.7845   13.0482 C.ar    1  UNL1        0.1826
     15 N          62.4986   79.5171   12.2502 N.ar    1  UNL1       -0.2280
     16 C          62.8384   79.8431   10.8260 C.ar    1  UNL1        0.0786
     17 C          62.8786   78.8709    9.6844 C.3     1  UNL1        0.0538
     18 C          63.1309   81.3120   10.7438 C.ar    1  UNL1        0.0963
     19 N          63.7243   91.4826   13.0218 N.pl3   1  UNL1       -0.2784
     20 H          62.8532   91.9413   13.0314 H       1  UNL1        0.1555
     21 N          66.0323   92.7907   13.3482 N.ar    1  UNL1       -0.2380
     22 N          67.0461   93.3999   12.4255 N.ar    1  UNL1       -0.1726
     23 C          66.5812   93.1800   11.0163 C.ar    1  UNL1        0.0807
     24 C          65.2804   92.4351   11.0682 C.ar    1  UNL1        0.0505
     25 C          64.9411   92.1945   12.5094 C.ar    1  UNL1        0.1317
     26 C          67.2925   93.6267    9.7736 C.3     1  UNL1        0.0372
     27 C          68.0658   92.3415    9.7541 C.3     1  UNL1        0.0060
     28 C          66.5192   94.9119    9.7930 C.3     1  UNL1        0.0060
     29 C          68.0037   94.0735    8.5307 C.3     1  UNL1        0.0060
     30 C          67.3652   93.1773   15.5446 C.3     1  UNL1        0.0285
     31 C          66.0983   92.7798   14.8467 C.3     1  UNL1        0.1289
@<TRIPOS>BOND
     1    30    31    1
     2    31    21    1
     3    21    22   ar
     4    22    23   ar
     5    23    26    1
     6    26    27    1
     7    26    28    1
     8    26    29    1
     9    23    24   ar
    10    24    25   ar
    11    25    19    1
    12    19     1    1
    13     1     2   ar
    14     2     3   ar
    15     3     6    1
    16     6     7   ar
    17     7     8   ar
    18     8     9   ar
    19     9    13    1
    20    13    14   ar
    21    14    15   ar
    22    15    16   ar
    23    16    17    1
    24    16    18   ar
    25     9    10   ar
    26    10    11    1
    27    10    12   ar
    28     3     4   ar
    29     4     5   ar
    30    25    21   ar
    31     5     1   ar
    32    12     6   ar
    33    18    13   ar
    34    19    20    1
@<TRIPOS>MOLECULE
*****
 31 34 0 0 0
SMALL
GASTEIGER

@<TRIPOS>ATOM
      1 C          63.8808   87.1288   15.7764 C.ar    1  UNL1        0.1646
      2 N          64.5936   87.9133   14.7151 N.ar    1  UNL1       -0.2239
      3 C          64.1950   89.3525   14.8561 C.ar    1  UNL1        0.0898
      4 C          63.2358   89.4574   16.0046 C.ar    1  UNL1        0.0572
      5 S          63.0416   88.0831   16.5735 S.2     1  UNL1       -0.0509
      6 C          64.6718   90.4875   13.9991 C.ar    1  UNL1        0.0206
      7 C          64.0070   90.7645   12.6833 C.ar    1  UNL1        0.0032
      8 C          64.4839   91.8995   11.8264 C.ar    1  UNL1        0.0199
      9 C          65.6254   92.7575   12.2852 C.ar    1  UNL1        0.0929
     10 C          66.2902   92.4806   13.6010 C.ar    1  UNL1        0.1562
     11 F          67.4318   93.3386   14.0599 F       1  UNL1       -0.2026
     12 C          65.8134   91.3456   14.4580 C.ar    1  UNL1        0.0327
     13 N          66.1023   93.8926   11.4282 N.ar    1  UNL1       -0.2846
     14 C          66.2073   95.3293   11.8463 C.ar    1  UNL1        0.1826
     15 N          66.7277   96.1148   10.6792 N.ar    1  UNL1       -0.2280
     16 C          66.9443   95.1635    9.5398 C.ar    1  UNL1        0.0786
     17 C          67.4574   95.5226    8.1768 C.3     1  UNL1        0.0538
     18 C          66.5578   93.7901   10.0028 C.ar    1  UNL1        0.0963
     19 N          63.9883   85.6496   16.0013 N.pl3   1  UNL1       -0.2784
     20 H          64.3652   85.3059   16.8434 H       1  UNL1        0.1555
     21 N          63.1615   85.0497   13.5313 N.ar    1  UNL1       -0.2380
     22 N          62.7503   83.7909   12.8268 N.ar    1  UNL1       -0.1726
     23 C          62.8562   82.6574   13.8036 C.ar    1  UNL1        0.0807
     24 C          63.3329   83.2158   15.1116 C.ar    1  UNL1        0.0505
     25 C          63.5215   84.6943   14.9433 C.ar    1  UNL1        0.1317
     26 C          62.5409   81.2183   13.5218 C.3     1  UNL1        0.0372
     27 C          61.2355   81.3624   14.2465 C.3     1  UNL1        0.0060
     28 C          63.8462   81.0742   12.7970 C.3     1  UNL1        0.0060
     29 C          62.2256   79.7791   13.2399 C.3     1  UNL1        0.0060
     30 C          62.5356   86.6864   11.6130 C.3     1  UNL1        0.0285
     31 C          63.2050   86.4230   12.9293 C.3     1  UNL1        0.1289
@<TRIPOS>BOND
     1    30    31    1
     2    31    21    1
     3    21    22   ar
     4    22    23   ar
     5    23    26    1
     6    26    27    1
     7    26    28    1
     8    26    29    1
     9    23    24   ar
    10    24    25   ar
    11    25    19    1
    12    19     1    1
    13     1     2   ar
    14     2     3   ar
    15     3     6    1
    16     6     7   ar
    17     7     8   ar
    18     8     9   ar
    19     9    13    1
    20    13    14   ar
    21    14    15   ar
    22    15    16   ar
    23    16    17    1
    24    16    18   ar
    25     9    10   ar
    26    10    11    1
    27    10    12   ar
    28     3     4   ar
    29     4     5   ar
    30    25    21   ar
    31     5     1   ar
    32    12     6   ar
    33    18    13   ar
    34    19    20    1
@<TRIPOS>MOLECULE
*****
 31 34 0 0 0
SMALL
GASTEIGER

@<TRIPOS>ATOM
      1 C          64.2350   90.6506   14.2510 C.ar    1  UNL1        0.1646
      2 N          64.1712   89.4208   13.3945 N.ar    1  UNL1       -0.2239
      3 C          63.8311   88.2576   14.2783 C.ar    1  UNL1        0.0898
      4 C          63.6847   88.7684   15.6810 C.ar    1  UNL1        0.0572
      5 S          63.9343   90.2474   15.6642 S.2     1  UNL1       -0.0509
      6 C          63.6662   86.8334   13.8369 C.ar    1  UNL1        0.0206
      7 C          64.2996   85.7258   14.6254 C.ar    1  UNL1        0.0032
      8 C          64.1347   84.3017   14.1840 C.ar    1  UNL1        0.0199
      9 C          63.3365   83.9854   12.9541 C.ar    1  UNL1        0.0929
     10 C          62.7032   85.0931   12.1656 C.ar    1  UNL1        0.1562
     11 F          61.9049   84.7767   10.9356 F       1  UNL1       -0.2026
     12 C          62.8680   86.5171   12.6070 C.ar    1  UNL1        0.0327
     13 N          63.1717   82.5612   12.5127 N.ar    1  UNL1       -0.2846
     14 C          62.8893   81.3888   13.4047 C.ar    1  UNL1        0.1826
     15 N          62.8034   80.1625   12.5452 N.ar    1  UNL1       -0.2280
     16 C          63.0327   80.5771   11.1219 C.ar    1  UNL1        0.0786
     17 C          63.0341   79.6686    9.9283 C.3     1  UNL1        0.0538
     18 C          63.2603   82.0596   11.1019 C.ar    1  UNL1        0.0963
     19 N          64.5451   92.0397   13.7775 N.pl3   1  UNL1       -0.2784
     20 H          63.9586   92.7887   14.0311 H       1  UNL1        0.1555
     21 N          67.1787   92.0828   13.3219 N.ar    1  UNL1       -0.2380
     22 N          68.0477   92.4527   12.1565 N.ar    1  UNL1       -0.1726
     23 C          67.1547   92.8861   11.0318 C.ar    1  UNL1        0.0807
     24 C          65.7341   92.7842   11.5021 C.ar    1  UNL1        0.0505
     25 C          65.7489   92.2877   12.9175 C.ar    1  UNL1        0.1317
     26 C          67.6038   93.3416    9.6751 C.3     1  UNL1        0.0372
     27 C          66.8078   94.6029    9.8349 C.3     1  UNL1        0.0060
     28 C          68.3998   92.0803    9.5151 C.3     1  UNL1        0.0060
     29 C          68.0529   93.7970    8.3182 C.3     1  UNL1        0.0060
     30 C          67.3599   92.3868   15.8958 C.3     1  UNL1        0.0285
     31 C          67.6558   91.5939   14.6574 C.3     1  UNL1        0.1289
@<TRIPOS>BOND
     1    30    31    1
     2    31    21    1
     3    21    22   ar
     4    22    23   ar
     5    23    26    1
     6    26    27    1
     7    26    28    1
     8    26    29    1
     9    23    24   ar
    10    24    25   ar
    11    25    19    1
    12    19     1    1
    13     1     2   ar
    14     2     3   ar
    15     3     6    1
    16     6     7   ar
    17     7     8   ar
    18     8     9   ar
    19     9    13    1
    20    13    14   ar
    21    14    15   ar
    22    15    16   ar
    23    16    17    1
    24    16    18   ar
    25     9    10   ar
    26    10    11    1
    27    10    12   ar
    28     3     4   ar
    29     4     5   ar
    30    25    21   ar
    31     5     1   ar
    32    12     6   ar
    33    18    13   ar
    34    19    20    1
@<TRIPOS>MOLECULE
*****
 31 34 0 0 0
SMALL
GASTEIGER

@<TRIPOS>ATOM
      1 C          63.4697   91.1633   11.3254 C.ar    1  UNL1        0.1646
      2 N          63.7367   89.8673   12.0318 N.ar    1  UNL1       -0.2239
      3 C          62.8342   88.8239   11.4429 C.ar    1  UNL1        0.0898
      4 C          62.0093   89.4751   10.3726 C.ar    1  UNL1        0.0572
      5 S          62.4020   90.9209   10.3000 S.2     1  UNL1       -0.0509
      6 C          62.7681   87.3824   11.8525 C.ar    1  UNL1        0.0206
      7 C          61.9360   86.4158   11.0630 C.ar    1  UNL1        0.0032
      8 C          61.8699   84.9743   11.4726 C.ar    1  UNL1        0.0199
      9 C          62.6360   84.4994   12.6716 C.ar    1  UNL1        0.0929
     10 C          63.4681   85.4660   13.4610 C.ar    1  UNL1        0.1562
     11 F          64.2341   84.9911   14.6601 F       1  UNL1       -0.2026
     12 C          63.5342   86.9075   13.0515 C.ar    1  UNL1        0.0327
     13 N          62.5699   83.0579   13.0811 N.ar    1  UNL1       -0.2846
     14 C          62.3878   82.5460   14.4793 C.ar    1  UNL1        0.1826
     15 N          62.3796   81.0470   14.4268 N.ar    1  UNL1       -0.2280
     16 C          62.5566   80.6324   12.9960 C.ar    1  UNL1        0.0786
     17 C          62.6072   79.2225   12.4864 C.3     1  UNL1        0.0538
     18 C          62.6742   81.8752   12.1644 C.ar    1  UNL1        0.0963
     19 N          64.1507   92.4720   11.5968 N.pl3   1  UNL1       -0.2784
     20 H          63.7111   93.3168   11.3470 H       1  UNL1        0.1555
     21 N          66.8208   92.5809   11.5408 N.ar    1  UNL1       -0.2380
     22 N          67.9048   92.5730   12.5778 N.ar    1  UNL1       -0.1726
     23 C          67.2550   92.4807   13.9266 C.ar    1  UNL1        0.0807
     24 C          65.7697   92.4316   13.7233 C.ar    1  UNL1        0.0505
     25 C          65.5014   92.4936   12.2488 C.ar    1  UNL1        0.1317
     26 C          67.9659   92.4439   15.2469 C.3     1  UNL1        0.0372
     27 C          66.6680   92.7030   15.9530 C.3     1  UNL1        0.0060
     28 C          69.2637   92.1848   14.5409 C.3     1  UNL1        0.0060
     29 C          68.6769   92.4071   16.5673 C.3     1  UNL1        0.0060
     30 C          68.3470   92.2961    9.4576 C.3     1  UNL1        0.0285
     31 C          67.0213   92.6620   10.0565 C.3     1  UNL1        0.1289
@<TRIPOS>BOND
     1    30    31    1
     2    31    21    1
     3    21    22   ar
     4    22    23   ar
     5    23    26    1
     6    26    27    1
     7    26    28    1
     8    26    29    1
     9    23    24   ar
    10    24    25   ar
    11    25    19    1
    12    19     1    1
    13     1     2   ar
    14     2     3   ar
    15     3     6    1
    16     6     7   ar
    17     7     8   ar
    18     8     9   ar
    19     9    13    1
    20    13    14   ar
    21    14    15   ar
    22    15    16   ar
    23    16    17    1
    24    16    18   ar
    25     9    10   ar
    26    10    11    1
    27    10    12   ar
    28     3     4   ar
    29     4     5   ar
    30    25    21   ar
    31     5     1   ar
    32    12     6   ar
    33    18    13   ar
    34    19    20    1
@<TRIPOS>MOLECULE
*****
 31 34 0 0 0
SMALL
GASTEIGER

@<TRIPOS>ATOM
      1 C          58.9337   89.9624    6.1043 C.ar    1  UNL1        0.1646
      2 N          60.1776   90.3371    5.3544 N.ar    1  UNL1       -0.2239
      3 C          59.8433   91.4821    4.4448 C.ar    1  UNL1        0.0898
      4 C          58.3928   91.8151    4.6326 C.ar    1  UNL1        0.0572
      5 S          57.8306   90.8759    5.6582 S.2     1  UNL1       -0.0509
      6 C          60.7929   92.1728    3.5113 C.ar    1  UNL1        0.0206
      7 C          62.2109   91.6975    3.3968 C.ar    1  UNL1        0.0032
      8 C          63.1604   92.3883    2.4634 C.ar    1  UNL1        0.0199
      9 C          62.6918   93.5544    1.6445 C.ar    1  UNL1        0.0929
     10 C          61.2737   94.0297    1.7590 C.ar    1  UNL1        0.1562
     11 F          60.8051   95.1958    0.9401 F       1  UNL1       -0.2026
     12 C          60.3243   93.3389    2.6924 C.ar    1  UNL1        0.0327
     13 N          63.6413   94.2451    0.7110 N.ar    1  UNL1       -0.2846
     14 C          64.9706   94.8331    1.0815 C.ar    1  UNL1        0.1826
     15 N          65.5791   95.4205   -0.1573 N.ar    1  UNL1       -0.2280
     16 C          64.6258   95.1956   -1.2934 C.ar    1  UNL1        0.0786
     17 C          64.8337   95.6223   -2.7164 C.3     1  UNL1        0.0538
     18 C          63.4282   94.4692   -0.7568 C.ar    1  UNL1        0.0963
     19 N          58.8138   88.8667    7.1216 N.pl3   1  UNL1       -0.2784
     20 H          58.0009   88.3123    7.1545 H       1  UNL1        0.1555
     21 N          60.6291   87.3059    8.3105 N.ar    1  UNL1       -0.2380
     22 N          61.6782   87.5110    9.3629 N.ar    1  UNL1       -0.1726
     23 C          61.6298   88.9477    9.7916 C.ar    1  UNL1        0.0807
     24 C          60.5509   89.6303    9.0043 C.ar    1  UNL1        0.0505
     25 C          59.9325   88.6157    8.0889 C.ar    1  UNL1        0.1317
     26 C          62.5064   89.5890   10.8261 C.3     1  UNL1        0.0372
     27 C          62.4557   90.8821   10.0675 C.3     1  UNL1        0.0060
     28 C          62.5571   88.2960   11.5847 C.3     1  UNL1        0.0060
     29 C          63.3830   90.2303   11.8607 C.3     1  UNL1        0.0060
     30 C          61.4523   85.1538    7.1101 C.3     1  UNL1        0.0285
     31 C          60.3294   86.0172    7.6038 C.3     1  UNL1        0.1289
@<TRIPOS>BOND
     1    30    31    1
     2    31    21    1
     3    21    22   ar
     4    22    23   ar
     5    23    26    1
     6    26    27    1
     7    26    28    1
     8    26    29    1
     9    23    24   ar
    10    24    25   ar
    11    25    19    1
    12    19     1    1
    13     1     2   ar
    14     2     3   ar
    15     3     6    1
    16     6     7   ar
    17     7     8   ar
    18     8     9   ar
    19     9    13    1
    20    13    14   ar
    21    14    15   ar
    22    15    16   ar
    23    16    17    1
    24    16    18   ar
    25     9    10   ar
    26    10    11    1
    27    10    12   ar
    28     3     4   ar
    29     4     5   ar
    30    25    21   ar
    31     5     1   ar
    32    12     6   ar
    33    18    13   ar
    34    19    20    1
@<TRIPOS>MOLECULE
*****
 31 34 0 0 0
SMALL
GASTEIGER

@<TRIPOS>ATOM
      1 C          65.1128   91.3691   14.7208 C.ar    1  UNL1        0.1646
      2 N          65.2446   90.0475   14.0237 N.ar    1  UNL1       -0.2239
      3 C          64.2754   89.0921   14.6544 C.ar    1  UNL1        0.0898
      4 C          63.5445   89.8232   15.7413 C.ar    1  UNL1        0.0572
      5 S          64.0621   91.2305   15.7823 S.2     1  UNL1       -0.0509
      6 C          64.0726   87.6573   14.2664 C.ar    1  UNL1        0.0206
      7 C          64.5891   86.5611   15.1503 C.ar    1  UNL1        0.0032
      8 C          64.3862   85.1265   14.7623 C.ar    1  UNL1        0.0199
      9 C          63.6669   84.7881   13.4903 C.ar    1  UNL1        0.0929
     10 C          63.1504   85.8843   12.6063 C.ar    1  UNL1        0.1562
     11 F          62.4311   85.5459   11.3343 F       1  UNL1       -0.2026
     12 C          63.3532   87.3189   12.9943 C.ar    1  UNL1        0.0327
     13 N          63.4641   83.3533   13.1022 N.ar    1  UNL1       -0.2846
     14 C          64.0178   82.6840   11.8794 C.ar    1  UNL1        0.1826
     15 N          63.5679   81.2531   11.8903 N.ar    1  UNL1       -0.2280
     16 C          62.7361   81.0381   13.1199 C.ar    1  UNL1        0.0786
     17 C          62.0831   79.7511   13.5287 C.3     1  UNL1        0.0538
     18 C          62.6719   82.3361   13.8689 C.ar    1  UNL1        0.0963
     19 N          65.8945   92.6112   14.4108 N.pl3   1  UNL1       -0.2784
     20 H          66.4312   93.0434   15.1139 H       1  UNL1        0.1555
     21 N          65.0738   92.6620   11.8674 N.ar    1  UNL1       -0.2380
     22 N          65.3309   93.5518   10.6874 N.ar    1  UNL1       -0.1726
     23 C          66.2744   94.6346   11.1204 C.ar    1  UNL1        0.0807
     24 C          66.6003   94.4140   12.5678 C.ar    1  UNL1        0.0505
     25 C          65.8583   93.1949   13.0295 C.ar    1  UNL1        0.1317
     26 C          66.7997   95.7432   10.2573 C.3     1  UNL1        0.0372
     27 C          67.5300   94.7406    9.4138 C.3     1  UNL1        0.0060
     28 C          66.0694   96.7458   11.1008 C.3     1  UNL1        0.0060
     29 C          67.3250   96.8520    9.3943 C.3     1  UNL1        0.0060
     30 C          63.3247   91.1392   10.6961 C.3     1  UNL1        0.0285
     31 C          64.1876   91.4518   11.8826 C.3     1  UNL1        0.1289
@<TRIPOS>BOND
     1    30    31    1
     2    31    21    1
     3    21    22   ar
     4    22    23   ar
     5    23    26    1
     6    26    27    1
     7    26    28    1
     8    26    29    1
     9    23    24   ar
    10    24    25   ar
    11    25    19    1
    12    19     1    1
    13     1     2   ar
    14     2     3   ar
    15     3     6    1
    16     6     7   ar
    17     7     8   ar
    18     8     9   ar
    19     9    13    1
    20    13    14   ar
    21    14    15   ar
    22    15    16   ar
    23    16    17    1
    24    16    18   ar
    25     9    10   ar
    26    10    11    1
    27    10    12   ar
    28     3     4   ar
    29     4     5   ar
    30    25    21   ar
    31     5     1   ar
    32    12     6   ar
    33    18    13   ar
    34    19    20    1
@<TRIPOS>MOLECULE
*****
 31 34 0 0 0
SMALL
GASTEIGER

@<TRIPOS>ATOM
      1 C          63.1670   87.2326   16.2542 C.ar    1  UNL1        0.1646
      2 N          63.8143   87.8195   15.0350 N.ar    1  UNL1       -0.2239
      3 C          63.8956   89.3054   15.2231 C.ar    1  UNL1        0.0898
      4 C          63.2984   89.6369   16.5586 C.ar    1  UNL1        0.0572
      5 S          62.8481   88.3558   17.1959 S.2     1  UNL1       -0.0509
      6 C          64.4727   90.2875   14.2471 C.ar    1  UNL1        0.0206
      7 C          65.7371   91.0221   14.5812 C.ar    1  UNL1        0.0032
      8 C          66.3141   92.0041   13.6052 C.ar    1  UNL1        0.0199
      9 C          65.6267   92.2516   12.2952 C.ar    1  UNL1        0.0929
     10 C          64.3623   91.5171   11.9611 C.ar    1  UNL1        0.1562
     11 F          63.6749   91.7646   10.6510 F       1  UNL1       -0.2026
     12 C          63.7853   90.5350   12.9371 C.ar    1  UNL1        0.0327
     13 N          66.2038   93.2337   11.3192 N.ar    1  UNL1       -0.2846
     14 C          67.0086   92.8953   10.0994 C.ar    1  UNL1        0.1826
     15 N          67.3796   94.1790    9.4180 N.ar    1  UNL1       -0.2280
     16 C          66.8041   95.3109   10.2166 C.ar    1  UNL1        0.0786
     17 C          66.9327   96.7707    9.8964 C.3     1  UNL1        0.0538
     18 C          66.0774   94.7266   11.3916 C.ar    1  UNL1        0.0963
     19 N          62.8875   85.7779   16.4902 N.pl3   1  UNL1       -0.2784
     20 H          62.4484   85.4898   17.3230 H       1  UNL1        0.1555
     21 N          64.5798   84.7141   14.7157 N.ar    1  UNL1       -0.2380
     22 N          64.5403   83.5383   13.7851 N.ar    1  UNL1       -0.1726
     23 C          63.2130   82.8597   13.9520 C.ar    1  UNL1        0.0807
     24 C          62.4324   83.6160   14.9856 C.ar    1  UNL1        0.0505
     25 C          63.2771   84.7621   15.4576 C.ar    1  UNL1        0.1317
     26 C          62.7481   81.6390   13.2146 C.3     1  UNL1        0.0372
     27 C          63.8240   81.8478   12.1904 C.3     1  UNL1        0.0060
     28 C          61.6722   81.4301   14.2387 C.3     1  UNL1        0.0060
     29 C          62.2831   80.4182   12.4772 C.3     1  UNL1        0.0060
     30 C          67.1321   85.1634   14.9001 C.3     1  UNL1        0.0285
     31 C          65.7218   85.6735   14.8761 C.3     1  UNL1        0.1289
@<TRIPOS>BOND
     1    30    31    1
     2    31    21    1
     3    21    22   ar
     4    22    23   ar
     5    23    26    1
     6    26    27    1
     7    26    28    1
     8    26    29    1
     9    23    24   ar
    10    24    25   ar
    11    25    19    1
    12    19     1    1
    13     1     2   ar
    14     2     3   ar
    15     3     6    1
    16     6     7   ar
    17     7     8   ar
    18     8     9   ar
    19     9    13    1
    20    13    14   ar
    21    14    15   ar
    22    15    16   ar
    23    16    17    1
    24    16    18   ar
    25     9    10   ar
    26    10    11    1
    27    10    12   ar
    28     3     4   ar
    29     4     5   ar
    30    25    21   ar
    31     5     1   ar
    32    12     6   ar
    33    18    13   ar
    34    19    20    1
@<TRIPOS>MOLECULE
*****
 31 34 0 0 0
SMALL
GASTEIGER

@<TRIPOS>ATOM
      1 C          61.4647   87.8984   10.0637 C.ar    1  UNL1        0.1646
      2 N          62.6418   88.1736   10.9518 N.ar    1  UNL1       -0.2239
      3 C          62.5927   89.6184   11.3520 C.ar    1  UNL1        0.0898
      4 C          61.3852   90.2361   10.7113 C.ar    1  UNL1        0.0572
      5 S          60.6881   89.1731    9.9150 S.2     1  UNL1       -0.0509
      6 C          63.5780   90.3220   12.2376 C.ar    1  UNL1        0.0206
      7 C          63.9056   89.7608   13.5895 C.ar    1  UNL1        0.0032
      8 C          64.8909   90.4644   14.4749 C.ar    1  UNL1        0.0199
      9 C          65.5486   91.7292   14.0085 C.ar    1  UNL1        0.0929
     10 C          65.2210   92.2905   12.6566 C.ar    1  UNL1        0.1562
     11 F          65.8788   93.5553   12.1901 F       1  UNL1       -0.2026
     12 C          64.2358   91.5869   11.7711 C.ar    1  UNL1        0.0327
     13 N          66.5340   92.4329   14.8940 N.ar    1  UNL1       -0.2846
     14 C          66.3166   92.8105   16.3294 C.ar    1  UNL1        0.1826
     15 N          67.5579   93.4934   16.8221 N.ar    1  UNL1       -0.2280
     16 C          68.5424   93.5378   15.6913 C.ar    1  UNL1        0.0786
     17 C          69.9183   94.1331   15.7431 C.3     1  UNL1        0.0538
     18 C          67.9096   92.8823   14.4997 C.ar    1  UNL1        0.0963
     19 N          61.1240   86.5799    9.4347 N.pl3   1  UNL1       -0.2784
     20 H          60.3355   86.5025    8.8503 H       1  UNL1        0.1555
     21 N          62.7770   84.6229    8.6716 N.ar    1  UNL1       -0.2380
     22 N          63.4862   83.5008    9.3701 N.ar    1  UNL1       -0.1726
     23 C          63.1321   83.5640   10.8264 C.ar    1  UNL1        0.0807
     24 C          62.2042   84.7251   11.0278 C.ar    1  UNL1        0.0505
     25 C          61.9847   85.3796    9.6961 C.ar    1  UNL1        0.1317
     26 C          63.6203   82.6300   11.8937 C.3     1  UNL1        0.0372
     27 C          64.1002   83.8011   12.6990 C.3     1  UNL1        0.0060
     28 C          63.1404   81.4590   11.0885 C.3     1  UNL1        0.0060
     29 C          64.1085   81.6960   12.9611 C.3     1  UNL1        0.0060
     30 C          61.7324   84.5135    6.2953 C.3     1  UNL1        0.0285
     31 C          62.8478   84.9338    7.2058 C.3     1  UNL1        0.1289
@<TRIPOS>BOND
     1    30    31    1
     2    31    21    1
     3    21    22   ar
     4    22    23   ar
     5    23    26    1
     6    26    27    1
     7    26    28    1
     8    26    29    1
     9    23    24   ar
    10    24    25   ar
    11    25    19    1
    12    19     1    1
    13     1     2   ar
    14     2     3   ar
    15     3     6    1
    16     6     7   ar
    17     7     8   ar
    18     8     9   ar
    19     9    13    1
    20    13    14   ar
    21    14    15   ar
    22    15    16   ar
    23    16    17    1
    24    16    18   ar
    25     9    10   ar
    26    10    11    1
    27    10    12   ar
    28     3     4   ar
    29     4     5   ar
    30    25    21   ar
    31     5     1   ar
    32    12     6   ar
    33    18    13   ar
    34    19    20    1
