@<TRIPOS>MOLECULE
*****
 25 27 0 0 0
SMALL
GASTEIGER

@<TRIPOS>ATOM
      1 C          63.4887   90.6159   12.5539 C.ar    1  UNL1        0.1450
      2 C          63.0405   91.0733   11.1975 C.ar    1  UNL1        0.0561
      3 C          62.5119   90.0783   10.2073 C.ar    1  UNL1        0.0860
      4 N          62.4315   88.6259   10.5734 N.ar    1  UNL1       -0.2729
      5 C          62.8797   88.1685   11.9299 C.ar    1  UNL1        0.2679
      6 O          62.7993   86.7162   12.2961 O.2     1  UNL1       -0.2665
      7 C          63.4083   89.1635   12.9201 C.ar    1  UNL1        0.0980
      8 C          61.9029   87.6309    9.5832 C.ar    1  UNL1        0.0670
      9 C          62.8001   86.5527    9.0515 C.ar    1  UNL1        0.0199
     10 C          62.2715   85.5577    8.0612 C.ar    1  UNL1        0.0311
     11 C          60.8457   85.6410    7.6026 C.ar    1  UNL1        0.1402
     12 F          60.3171   84.6460    6.6124 F       1  UNL1       -0.2042
     13 C          59.9486   86.7192    8.1343 C.ar    1  UNL1        0.0311
     14 C          60.4772   87.7142    9.1245 C.ar    1  UNL1        0.0199
     15 O          64.0173   91.6109   13.5442 O.3     1  UNL1       -0.4714
     16 C          65.4910   91.6931   13.8110 C.3     1  UNL1        0.2485
     17 C          67.1768   93.4602   14.6974 C.3     1  UNL1        0.0513
     18 C          66.2115   92.9984   13.6463 C.3     1  UNL1        0.2094
     19 O          65.9667   93.8419   12.4303 O.3     1  UNL1       -0.4753
     20 C          66.7544   93.5980   11.1773 C.ar    1  UNL1        0.1386
     21 C          66.8560   94.6713   10.1345 C.ar    1  UNL1        0.0369
     22 C          67.6437   94.4275    8.8814 C.ar    1  UNL1        0.0031
     23 C          68.3298   93.1103    8.6713 C.ar    1  UNL1        0.0002
     24 C          68.2282   92.0369    9.7142 C.ar    1  UNL1        0.0031
     25 C          67.4405   92.2808   10.9672 C.ar    1  UNL1        0.0369
@<TRIPOS>BOND
     1    18    17    1
     2    18    16    1
     3    16    15    1
     4    15     1    1
     5     1     2   ar
     6     2     3   ar
     7     3     4   ar
     8     4     8    1
     9     8     9   ar
    10     9    10   ar
    11    10    11   ar
    12    11    12    1
    13    11    13   ar
    14    13    14   ar
    15     4     5   ar
    16     5     6    2
    17     5     7   ar
    18    18    19    1
    19    19    20    1
    20    20    21   ar
    21    21    22   ar
    22    22    23   ar
    23    23    24   ar
    24    24    25   ar
    25     7     1   ar
    26    25    20   ar
    27    14     8   ar
@<TRIPOS>MOLECULE
*****
 25 27 0 0 0
SMALL
GASTEIGER

@<TRIPOS>ATOM
      1 C          62.9236   89.6004   12.2530 C.ar    1  UNL1        0.1450
      2 C          63.5281   89.0193   13.4967 C.ar    1  UNL1        0.0561
      3 C          64.6570   89.7287   14.1839 C.ar    1  UNL1        0.0860
      4 N          65.1813   91.0192   13.6274 N.ar    1  UNL1       -0.2729
      5 C          64.5768   91.6003   12.3837 C.ar    1  UNL1        0.2679
      6 O          65.1011   92.8909   11.8272 O.2     1  UNL1       -0.2665
      7 C          63.4479   90.8909   11.6965 C.ar    1  UNL1        0.0980
      8 C          66.3103   91.7287   14.3147 C.ar    1  UNL1        0.0670
      9 C          66.0816   92.3961   15.6383 C.ar    1  UNL1        0.0199
     10 C          67.2105   93.1055   16.3256 C.ar    1  UNL1        0.0311
     11 C          68.5681   93.1474   15.6892 C.ar    1  UNL1        0.1402
     12 F          69.6971   93.8568   16.3764 F       1  UNL1       -0.2042
     13 C          68.7968   92.4799   14.3654 C.ar    1  UNL1        0.0311
     14 C          67.6679   91.7706   13.6782 C.ar    1  UNL1        0.0199
     15 O          61.7946   88.8910   11.5657 O.3     1  UNL1       -0.4714
     16 C          62.0347   88.1829   10.2653 C.3     1  UNL1        0.2485
     17 C          60.7512   86.6293    8.6255 C.3     1  UNL1        0.0513
     18 C          61.3427   86.8828    9.9804 C.3     1  UNL1        0.2094
     19 O          61.2423   85.8364   11.0504 O.3     1  UNL1       -0.4753
     20 C          62.3691   84.8691   11.2615 C.ar    1  UNL1        0.1386
     21 C          63.0717   84.2670   10.0809 C.ar    1  UNL1        0.0369
     22 C          64.1986   83.2996   10.2920 C.ar    1  UNL1        0.0031
     23 C          64.6227   82.9343   11.6836 C.ar    1  UNL1        0.0002
     24 C          63.9200   83.5365   12.8642 C.ar    1  UNL1        0.0031
     25 C          62.7933   84.5038   12.6531 C.ar    1  UNL1        0.0369
@<TRIPOS>BOND
     1    18    17    1
     2    18    16    1
     3    16    15    1
     4    15     1    1
     5     1     2   ar
     6     2     3   ar
     7     3     4   ar
     8     4     8    1
     9     8     9   ar
    10     9    10   ar
    11    10    11   ar
    12    11    12    1
    13    11    13   ar
    14    13    14   ar
    15     4     5   ar
    16     5     6    2
    17     5     7   ar
    18    18    19    1
    19    19    20    1
    20    20    21   ar
    21    21    22   ar
    22    22    23   ar
    23    23    24   ar
    24    24    25   ar
    25     7     1   ar
    26    25    20   ar
    27    14     8   ar
@<TRIPOS>MOLECULE
*****
 25 27 0 0 0
SMALL
GASTEIGER

@<TRIPOS>ATOM
      1 C          62.7440   90.0055   11.4130 C.ar    1  UNL1        0.1450
      2 C          63.4498   91.2542   10.9744 C.ar    1  UNL1        0.0561
      3 C          64.5467   91.8317   11.8189 C.ar    1  UNL1        0.0860
      4 N          64.9378   91.1604   13.1020 N.ar    1  UNL1       -0.2729
      5 C          64.2320   89.9117   13.5407 C.ar    1  UNL1        0.2679
      6 O          64.6231   89.2405   14.8238 O.2     1  UNL1       -0.2665
      7 C          63.1351   89.3342   12.6962 C.ar    1  UNL1        0.0980
      8 C          66.0348   91.7380   13.9465 C.ar    1  UNL1        0.0670
      9 C          65.7356   92.2282   15.3322 C.ar    1  UNL1        0.0199
     10 C          66.8326   92.8057   16.1767 C.ar    1  UNL1        0.0311
     11 C          68.2288   92.8931   15.6354 C.ar    1  UNL1        0.1402
     12 F          69.3258   93.4706   16.4799 F       1  UNL1       -0.2042
     13 C          68.5280   92.4029   14.2497 C.ar    1  UNL1        0.0311
     14 C          67.4310   91.8253   13.4053 C.ar    1  UNL1        0.0199
     15 O          61.6470   89.4279   10.5685 O.3     1  UNL1       -0.4714
     16 C          61.9304   88.2667    9.6623 C.3     1  UNL1        0.2485
     17 C          60.2942   86.4621    8.7588 C.3     1  UNL1        0.0513
     18 C          61.1917   86.9742    9.8461 C.3     1  UNL1        0.2094
     19 O          61.3506   86.1937   11.1172 O.3     1  UNL1       -0.4753
     20 C          62.3886   85.1150   11.2102 C.ar    1  UNL1        0.1386
     21 C          62.8704   84.6516   12.5530 C.ar    1  UNL1        0.0369
     22 C          63.9086   83.5728   12.6460 C.ar    1  UNL1        0.0031
     23 C          64.4649   82.9575   11.3963 C.ar    1  UNL1        0.0002
     24 C          63.9830   83.4210   10.0534 C.ar    1  UNL1        0.0031
     25 C          62.9449   84.4997    9.9604 C.ar    1  UNL1        0.0369
@<TRIPOS>BOND
     1    18    17    1
     2    18    16    1
     3    16    15    1
     4    15     1    1
     5     1     2   ar
     6     2     3   ar
     7     3     4   ar
     8     4     8    1
     9     8     9   ar
    10     9    10   ar
    11    10    11   ar
    12    11    12    1
    13    11    13   ar
    14    13    14   ar
    15     4     5   ar
    16     5     6    2
    17     5     7   ar
    18    18    19    1
    19    19    20    1
    20    20    21   ar
    21    21    22   ar
    22    22    23   ar
    23    23    24   ar
    24    24    25   ar
    25     7     1   ar
    26    25    20   ar
    27    14     8   ar
@<TRIPOS>MOLECULE
*****
 25 27 0 0 0
SMALL
GASTEIGER

@<TRIPOS>ATOM
      1 C          64.5347   90.3215   14.0525 C.ar    1  UNL1        0.1450
      2 C          63.8113   90.6530   12.7809 C.ar    1  UNL1        0.0561
      3 C          64.3815   91.6698   11.8370 C.ar    1  UNL1        0.0860
      4 N          65.6750   92.3550   12.1645 N.ar    1  UNL1       -0.2729
      5 C          66.3984   92.0235   13.4361 C.ar    1  UNL1        0.2679
      6 O          67.6919   92.7087   13.7636 O.2     1  UNL1       -0.2665
      7 C          65.8282   91.0067   14.3800 C.ar    1  UNL1        0.0980
      8 C          66.2451   93.3718   11.2205 C.ar    1  UNL1        0.0670
      9 C          65.9531   94.8292   11.4221 C.ar    1  UNL1        0.0199
     10 C          66.5232   95.8460   10.4780 C.ar    1  UNL1        0.0311
     11 C          67.3854   95.4053    9.3324 C.ar    1  UNL1        0.1402
     12 F          67.9556   96.4220    8.3884 F       1  UNL1       -0.2042
     13 C          67.6775   93.9478    9.1309 C.ar    1  UNL1        0.0311
     14 C          67.1073   92.9311   10.0749 C.ar    1  UNL1        0.0199
     15 O          63.9645   89.3047   14.9965 O.3     1  UNL1       -0.4714
     16 C          64.2591   87.8476   14.7967 C.3     1  UNL1        0.2485
     17 C          62.9858   87.2626   16.9845 C.3     1  UNL1        0.0513
     18 C          63.8901   86.8552   15.8593 C.3     1  UNL1        0.2094
     19 O          64.4256   85.4554   15.7967 O.3     1  UNL1       -0.4753
     20 C          63.8201   84.4625   14.8494 C.ar    1  UNL1        0.1386
     21 C          62.7595   83.5173   15.3306 C.ar    1  UNL1        0.0369
     22 C          62.1540   82.5243   14.3833 C.ar    1  UNL1        0.0031
     23 C          62.6091   82.4765   12.9548 C.ar    1  UNL1        0.0002
     24 C          63.6698   83.4218   12.4736 C.ar    1  UNL1        0.0031
     25 C          64.2753   84.4148   13.4209 C.ar    1  UNL1        0.0369
@<TRIPOS>BOND
     1    18    17    1
     2    18    16    1
     3    16    15    1
     4    15     1    1
     5     1     2   ar
     6     2     3   ar
     7     3     4   ar
     8     4     8    1
     9     8     9   ar
    10     9    10   ar
    11    10    11   ar
    12    11    12    1
    13    11    13   ar
    14    13    14   ar
    15     4     5   ar
    16     5     6    2
    17     5     7   ar
    18    18    19    1
    19    19    20    1
    20    20    21   ar
    21    21    22   ar
    22    22    23   ar
    23    23    24   ar
    24    24    25   ar
    25     7     1   ar
    26    25    20   ar
    27    14     8   ar
@<TRIPOS>MOLECULE
*****
 25 27 0 0 0
SMALL
GASTEIGER

@<TRIPOS>ATOM
      1 C          62.8208   90.4617   11.0598 C.ar    1  UNL1        0.1450
      2 C          63.7155   91.5947   10.6526 C.ar    1  UNL1        0.0561
      3 C          64.8105   92.0525   11.5698 C.ar    1  UNL1        0.0860
      4 N          65.0108   91.3773   12.8942 N.ar    1  UNL1       -0.2729
      5 C          64.1162   90.2443   13.3014 C.ar    1  UNL1        0.2679
      6 O          64.3165   89.5691   14.6258 O.2     1  UNL1       -0.2665
      7 C          63.0211   89.7865   12.3842 C.ar    1  UNL1        0.0980
      8 C          66.1059   91.8352   13.8114 C.ar    1  UNL1        0.0670
      9 C          67.5323   91.8092   13.3480 C.ar    1  UNL1        0.0199
     10 C          68.6274   92.2671   14.2652 C.ar    1  UNL1        0.0311
     11 C          68.2960   92.7509   15.6459 C.ar    1  UNL1        0.1402
     12 F          69.3910   93.2087   16.5631 F       1  UNL1       -0.2042
     13 C          66.8696   92.7768   16.1093 C.ar    1  UNL1        0.0311
     14 C          65.7746   92.3190   15.1921 C.ar    1  UNL1        0.0199
     15 O          61.7257   90.0038   10.1426 O.3     1  UNL1       -0.4714
     16 C          60.5467   89.2593   10.6953 C.3     1  UNL1        0.2485
     17 C          59.6574   87.3602    9.1615 C.3     1  UNL1        0.0513
     18 C          60.3779   87.7979   10.4021 C.3     1  UNL1        0.2094
     19 O          60.9297   86.7743   11.3496 O.3     1  UNL1       -0.4753
     20 C          61.9051   85.7462   10.8582 C.ar    1  UNL1        0.1386
     21 C          62.3442   85.7542    9.4240 C.ar    1  UNL1        0.0369
     22 C          63.3198   84.7261    8.9325 C.ar    1  UNL1        0.0031
     23 C          63.8561   83.6901    9.8754 C.ar    1  UNL1        0.0002
     24 C          63.4169   83.6821   11.3097 C.ar    1  UNL1        0.0031
     25 C          62.4415   84.7102   11.8011 C.ar    1  UNL1        0.0369
@<TRIPOS>BOND
     1    18    17    1
     2    18    16    1
     3    16    15    1
     4    15     1    1
     5     1     2   ar
     6     2     3   ar
     7     3     4   ar
     8     4     8    1
     9     8     9   ar
    10     9    10   ar
    11    10    11   ar
    12    11    12    1
    13    11    13   ar
    14    13    14   ar
    15     4     5   ar
    16     5     6    2
    17     5     7   ar
    18    18    19    1
    19    19    20    1
    20    20    21   ar
    21    21    22   ar
    22    22    23   ar
    23    23    24   ar
    24    24    25   ar
    25     7     1   ar
    26    25    20   ar
    27    14     8   ar
@<TRIPOS>MOLECULE
*****
 25 27 0 0 0
SMALL
GASTEIGER

@<TRIPOS>ATOM
      1 C          64.0517   88.3784   13.7877 C.ar    1  UNL1        0.1450
      2 C          64.5309   87.3698   14.7892 C.ar    1  UNL1        0.0561
      3 C          64.2540   85.9111   14.5760 C.ar    1  UNL1        0.0860
      4 N          63.4978   85.4611   13.3612 N.ar    1  UNL1       -0.2729
      5 C          63.0186   86.4697   12.3597 C.ar    1  UNL1        0.2679
      6 O          62.2625   86.0196   11.1449 O.2     1  UNL1       -0.2665
      7 C          63.2956   87.9283   12.5730 C.ar    1  UNL1        0.0980
      8 C          63.2209   84.0023   13.1479 C.ar    1  UNL1        0.0670
      9 C          63.7381   83.3123   11.9206 C.ar    1  UNL1        0.0199
     10 C          63.4612   81.8535   11.7073 C.ar    1  UNL1        0.0311
     11 C          62.6670   81.0848   12.7215 C.ar    1  UNL1        0.1402
     12 F          62.3901   79.6262   12.5083 F       1  UNL1       -0.2042
     13 C          62.1499   81.7749   13.9489 C.ar    1  UNL1        0.0311
     14 C          62.4268   83.2336   14.1621 C.ar    1  UNL1        0.0199
     15 O          64.3287   89.8372   14.0010 O.3     1  UNL1       -0.4714
     16 C          63.6235   90.8643   13.1658 C.3     1  UNL1        0.2485
     17 C          63.8551   91.5280   10.6645 C.3     1  UNL1        0.0513
     18 C          64.3633   91.5804   12.0748 C.3     1  UNL1        0.2094
     19 O          65.6113   92.3488   12.3943 O.3     1  UNL1       -0.4753
     20 C          66.3645   93.0447   11.2996 C.ar    1  UNL1        0.1386
     21 C          67.3863   92.2943   10.4980 C.ar    1  UNL1        0.0369
     22 C          68.1395   92.9902    9.4032 C.ar    1  UNL1        0.0031
     23 C          67.8708   94.4366    9.1101 C.ar    1  UNL1        0.0002
     24 C          66.8489   95.1870    9.9118 C.ar    1  UNL1        0.0031
     25 C          66.0958   94.4911   11.0065 C.ar    1  UNL1        0.0369
@<TRIPOS>BOND
     1    18    17    1
     2    18    16    1
     3    16    15    1
     4    15     1    1
     5     1     2   ar
     6     2     3   ar
     7     3     4   ar
     8     4     8    1
     9     8     9   ar
    10     9    10   ar
    11    10    11   ar
    12    11    12    1
    13    11    13   ar
    14    13    14   ar
    15     4     5   ar
    16     5     6    2
    17     5     7   ar
    18    18    19    1
    19    19    20    1
    20    20    21   ar
    21    21    22   ar
    22    22    23   ar
    23    23    24   ar
    24    24    25   ar
    25     7     1   ar
    26    25    20   ar
    27    14     8   ar
@<TRIPOS>MOLECULE
*****
 25 27 0 0 0
SMALL
GASTEIGER

@<TRIPOS>ATOM
      1 C          63.5750   83.7271   11.2053 C.ar    1  UNL1        0.1450
      2 C          62.6041   84.5902   11.9553 C.ar    1  UNL1        0.0561
      3 C          61.7531   85.5792   11.2154 C.ar    1  UNL1        0.0860
      4 N          61.8728   85.7051    9.7255 N.ar    1  UNL1       -0.2729
      5 C          62.8437   84.8421    8.9755 C.ar    1  UNL1        0.2679
      6 O          62.9635   84.9680    7.4856 O.2     1  UNL1       -0.2665
      7 C          63.6948   83.8531    9.7154 C.ar    1  UNL1        0.0980
      8 C          61.0217   86.6942    8.9856 C.ar    1  UNL1        0.0670
      9 C          61.1344   88.1581    9.2923 C.ar    1  UNL1        0.0199
     10 C          60.2833   89.1472    8.5524 C.ar    1  UNL1        0.0311
     11 C          59.3194   88.6722    7.5058 C.ar    1  UNL1        0.1402
     12 F          58.4683   89.6612    6.7659 F       1  UNL1       -0.2042
     13 C          59.2067   87.2082    7.1991 C.ar    1  UNL1        0.0311
     14 C          60.0578   86.2192    7.9390 C.ar    1  UNL1        0.0199
     15 O          64.4261   82.7380   11.9452 O.3     1  UNL1       -0.4714
     16 C          63.7897   81.5648   12.6295 C.3     1  UNL1        0.2485
     17 C          61.6443   81.3656   14.0813 C.3     1  UNL1        0.0513
     18 C          63.0868   81.7523   13.9413 C.3     1  UNL1        0.2094
     19 O          63.8265   82.3266   15.1131 O.3     1  UNL1       -0.4753
     20 C          63.8337   83.8089   15.3422 C.ar    1  UNL1        0.1386
     21 C          62.8336   84.4289   16.2725 C.ar    1  UNL1        0.0369
     22 C          62.8408   85.9113   16.5016 C.ar    1  UNL1        0.0031
     23 C          63.8480   86.7737   15.8003 C.ar    1  UNL1        0.0002
     24 C          64.8480   86.1537   14.8699 C.ar    1  UNL1        0.0031
     25 C          64.8408   84.6714   14.6408 C.ar    1  UNL1        0.0369
@<TRIPOS>BOND
     1    18    17    1
     2    18    16    1
     3    16    15    1
     4    15     1    1
     5     1     2   ar
     6     2     3   ar
     7     3     4   ar
     8     4     8    1
     9     8     9   ar
    10     9    10   ar
    11    10    11   ar
    12    11    12    1
    13    11    13   ar
    14    13    14   ar
    15     4     5   ar
    16     5     6    2
    17     5     7   ar
    18    18    19    1
    19    19    20    1
    20    20    21   ar
    21    21    22   ar
    22    22    23   ar
    23    23    24   ar
    24    24    25   ar
    25     7     1   ar
    26    25    20   ar
    27    14     8   ar
@<TRIPOS>MOLECULE
*****
 25 27 0 0 0
SMALL
GASTEIGER

@<TRIPOS>ATOM
      1 C          62.9923   90.9304   11.2484 C.ar    1  UNL1        0.1450
      2 C          63.0626   90.3423   12.6265 C.ar    1  UNL1        0.0561
      3 C          64.1982   90.7018   13.5382 C.ar    1  UNL1        0.0860
      4 N          65.2634   91.6493   13.0718 N.ar    1  UNL1       -0.2729
      5 C          65.1931   92.2374   11.6937 C.ar    1  UNL1        0.2679
      6 O          66.2583   93.1849   11.2274 O.2     1  UNL1       -0.2665
      7 C          64.0575   91.8780   10.7821 C.ar    1  UNL1        0.0980
      8 C          66.3990   92.0087   13.9836 C.ar    1  UNL1        0.0670
      9 C          67.8152   91.7939   13.5383 C.ar    1  UNL1        0.0199
     10 C          68.9508   92.1533   14.4501 C.ar    1  UNL1        0.0311
     11 C          68.6702   92.7275   15.8071 C.ar    1  UNL1        0.1402
     12 F          69.8057   93.0869   16.7189 F       1  UNL1       -0.2042
     13 C          67.2539   92.9423   16.2524 C.ar    1  UNL1        0.0311
     14 C          66.1184   92.5829   15.3406 C.ar    1  UNL1        0.0199
     15 O          61.8566   90.5710   10.3367 O.3     1  UNL1       -0.4714
     16 C          61.5960   89.1342    9.9937 C.3     1  UNL1        0.2485
     17 C          59.6837   89.0338   11.7495 C.3     1  UNL1        0.0513
     18 C          60.6104   88.3383   10.7969 C.3     1  UNL1        0.2094
     19 O          60.5515   86.8469   10.6475 O.3     1  UNL1       -0.4753
     20 C          61.1159   86.1932    9.4211 C.ar    1  UNL1        0.1386
     21 C          62.5238   85.6758    9.4276 C.ar    1  UNL1        0.0369
     22 C          63.0883   85.0220    8.2012 C.ar    1  UNL1        0.0031
     23 C          62.2448   84.8857    6.9683 C.ar    1  UNL1        0.0002
     24 C          60.8368   85.4032    6.9619 C.ar    1  UNL1        0.0031
     25 C          60.2724   86.0570    8.1882 C.ar    1  UNL1        0.0369
@<TRIPOS>BOND
     1    18    17    1
     2    18    16    1
     3    16    15    1
     4    15     1    1
     5     1     2   ar
     6     2     3   ar
     7     3     4   ar
     8     4     8    1
     9     8     9   ar
    10     9    10   ar
    11    10    11   ar
    12    11    12    1
    13    11    13   ar
    14    13    14   ar
    15     4     5   ar
    16     5     6    2
    17     5     7   ar
    18    18    19    1
    19    19    20    1
    20    20    21   ar
    21    21    22   ar
    22    22    23   ar
    23    23    24   ar
    24    24    25   ar
    25     7     1   ar
    26    25    20   ar
    27    14     8   ar
@<TRIPOS>MOLECULE
*****
 25 27 0 0 0
SMALL
GASTEIGER

@<TRIPOS>ATOM
      1 C          63.3814   84.1797   11.6941 C.ar    1  UNL1        0.1450
      2 C          62.3830   85.1139   12.3107 C.ar    1  UNL1        0.0561
      3 C          61.5700   86.0245   11.4391 C.ar    1  UNL1        0.0860
      4 N          61.7555   86.0009    9.9508 N.ar    1  UNL1       -0.2729
      5 C          62.7540   85.0667    9.3341 C.ar    1  UNL1        0.2679
      6 O          62.9395   85.0431    7.8458 O.2     1  UNL1       -0.2665
      7 C          63.5669   84.1561   10.2058 C.ar    1  UNL1        0.0980
      8 C          60.9425   86.9116    9.0791 C.ar    1  UNL1        0.0670
      9 C          61.0366   88.3984    9.2540 C.ar    1  UNL1        0.0199
     10 C          60.2236   89.3091    8.3824 C.ar    1  UNL1        0.0311
     11 C          59.3166   88.7330    7.3358 C.ar    1  UNL1        0.1402
     12 F          58.5036   89.6436    6.4641 F       1  UNL1       -0.2042
     13 C          59.2225   87.2461    7.1609 C.ar    1  UNL1        0.0311
     14 C          60.0355   86.3355    8.0325 C.ar    1  UNL1        0.0199
     15 O          64.1944   83.2690   12.5658 O.3     1  UNL1       -0.4714
     16 C          64.7395   83.7692   13.8706 C.3     1  UNL1        0.2485
     17 C          62.5358   83.1944   15.1210 C.3     1  UNL1        0.0513
     18 C          63.8227   83.9609   15.0423 C.3     1  UNL1        0.2094
     19 O          64.1929   84.9193   16.1353 O.3     1  UNL1       -0.4753
     20 C          63.9660   86.3905   15.9514 C.ar    1  UNL1        0.1386
     21 C          64.4947   87.0842   14.7311 C.ar    1  UNL1        0.0369
     22 C          64.2678   88.5555   14.5471 C.ar    1  UNL1        0.0031
     23 C          63.5121   89.3331   15.5836 C.ar    1  UNL1        0.0002
     24 C          62.9834   88.6394   16.8040 C.ar    1  UNL1        0.0031
     25 C          63.2103   87.1682   16.9879 C.ar    1  UNL1        0.0369
@<TRIPOS>BOND
     1    18    17    1
     2    18    16    1
     3    16    15    1
     4    15     1    1
     5     1     2   ar
     6     2     3   ar
     7     3     4   ar
     8     4     8    1
     9     8     9   ar
    10     9    10   ar
    11    10    11   ar
    12    11    12    1
    13    11    13   ar
    14    13    14   ar
    15     4     5   ar
    16     5     6    2
    17     5     7   ar
    18    18    19    1
    19    19    20    1
    20    20    21   ar
    21    21    22   ar
    22    22    23   ar
    23    23    24   ar
    24    24    25   ar
    25     7     1   ar
    26    25    20   ar
    27    14     8   ar
