@<TRIPOS>MOLECULE
*****
 40 45 0 0 0
SMALL
GASTEIGER

@<TRIPOS>ATOM
      1 C          62.0281   83.6446    8.1383 C.3     1  UNL1        0.0718
      2 C          62.4084   83.2963    9.5468 C.ar    1  UNL1        0.1207
      3 N          62.5637   81.9112   10.1013 N.ar    1  UNL1       -0.2294
      4 C          62.9515   82.0308   11.5454 C.ar    1  UNL1        0.1174
      5 C          63.2387   80.9997   12.5962 C.ar    1  UNL1        0.1193
      6 N          63.6102   81.4275   13.9850 N.ar    1  UNL1       -0.2421
      7 C          63.6945   82.8865   14.3231 C.ar    1  UNL1        0.0850
      8 C          64.0660   83.3144   15.7120 C.ar    1  UNL1        0.0488
      9 C          64.1503   84.7734   16.0500 C.ar    1  UNL1        0.1416
     10 F          64.5218   85.2012   17.4388 F       1  UNL1       -0.2041
     11 C          63.8631   85.8045   14.9991 C.ar    1  UNL1        0.0284
     12 C          63.4916   85.3766   13.6102 C.ar    1  UNL1        0.0052
     13 C          63.4073   83.9177   13.2722 C.ar    1  UNL1        0.0351
     14 C          63.0358   83.4898   11.8834 C.ar    1  UNL1        0.0815
     15 N          62.7001   84.2719   10.6482 N.ar    1  UNL1       -0.3166
     16 C          62.6628   85.7671   10.5344 C.3     1  UNL1        0.0900
     17 C          62.8255   86.6168   11.7597 C.3     1  UNL1        0.0441
     18 C          62.7881   88.1120   11.6459 C.3     1  UNL1        0.0954
     19 N          62.5881   88.7575   10.3068 N.am    1  UNL1       -0.2774
     20 C          62.5507   90.2528   10.1930 C.2     1  UNL1        0.2556
     21 O          62.3507   90.8982    8.8539 O.2     1  UNL1       -0.2722
     22 C          62.4253   87.9078    9.0814 C.3     1  UNL1        0.0954
     23 C          62.4627   86.4126    9.1952 C.3     1  UNL1        0.0441
     24 C          62.7135   91.1025   11.4184 C.3     1  UNL1        0.2232
     25 O          64.0862   91.4514   11.9121 O.3     1  UNL1       -0.3737
     26 H          64.5363   90.6461   12.2120 H       1  UNL1        0.2110
     27 C          63.9474   87.2635   15.3371 C.ar    1  UNL1        0.0129
     28 C          64.8076   88.1757   14.5136 C.ar    1  UNL1        0.0040
     29 C          64.8919   89.6347   14.8516 C.ar    1  UNL1        0.0377
     30 C          64.1160   90.1815   16.0131 C.ar    1  UNL1        0.1495
     31 C          63.2558   89.2693   16.8365 C.ar    1  UNL1        0.0490
     32 C          63.1715   87.8103   16.4985 C.ar    1  UNL1        0.0608
     33 CL         62.3114   86.8982   17.3220 Cl      1  UNL1       -0.0821
     34 O          64.2003   91.6405   16.3511 O.3     1  UNL1       -0.4223
     35 C          65.3529   92.4605   15.8521 C.ar    1  UNL1        0.3246
     36 N          66.5315   92.7182   16.7434 N.ar    1  UNL1       -0.1924
     37 C          67.6841   93.5383   16.2444 C.ar    1  UNL1        0.1053
     38 C          67.6581   94.1007   14.8541 C.ar    1  UNL1        0.0416
     39 C          66.4795   93.8430   13.9627 C.ar    1  UNL1        0.1053
     40 N          65.3269   93.0229   14.4618 N.ar    1  UNL1       -0.1924
@<TRIPOS>BOND
     1     1     2    1
     2     2     3   ar
     3     3     4   ar
     4     4     5   ar
     5     5     6   ar
     6     6     7   ar
     7     7     8   ar
     8     8     9   ar
     9     9    10    1
    10     9    11   ar
    11    11    27    1
    12    27    28   ar
    13    28    29   ar
    14    29    30   ar
    15    30    34    1
    16    34    35    1
    17    35    36   ar
    18    36    37   ar
    19    37    38   ar
    20    38    39   ar
    21    39    40   ar
    22    30    31   ar
    23    31    32   ar
    24    32    33    1
    25    11    12   ar
    26    12    13   ar
    27    13    14   ar
    28    14    15   ar
    29    15    16    1
    30    16    17    1
    31    17    18    1
    32    18    19    1
    33    19    20   am
    34    20    21    2
    35    20    24    1
    36    24    25    1
    37    19    22    1
    38    22    23    1
    39    15     2   ar
    40    23    16    1
    41    14     4   ar
    42    13     7   ar
    43    32    27   ar
    44    40    35   ar
    45    25    26    1
@<TRIPOS>MOLECULE
*****
 40 45 0 0 0
SMALL
GASTEIGER

@<TRIPOS>ATOM
      1 C          61.8511   91.3914   11.0532 C.3     1  UNL1        0.0718
      2 C          62.5001   90.4557   12.0297 C.ar    1  UNL1        0.1207
      3 N          63.1664   90.8463   13.3155 N.ar    1  UNL1       -0.2294
      4 C          63.6749   89.5972   13.9723 C.ar    1  UNL1        0.1174
      5 C          64.4129   89.3683   15.2579 C.ar    1  UNL1        0.1193
      6 N          64.7989   87.9768   15.6635 N.ar    1  UNL1       -0.2421
      7 C          64.4468   86.8141   14.7835 C.ar    1  UNL1        0.0850
      8 C          64.8329   85.4225   15.1891 C.ar    1  UNL1        0.0488
      9 C          64.4808   84.2599   14.3091 C.ar    1  UNL1        0.1416
     10 F          64.8668   82.8684   14.7147 F       1  UNL1       -0.2041
     11 C          63.7427   84.4889   13.0235 C.ar    1  UNL1        0.0284
     12 C          63.3567   85.8805   12.6179 C.ar    1  UNL1        0.0052
     13 C          63.7088   87.0431   13.4979 C.ar    1  UNL1        0.0351
     14 C          63.3228   88.4346   13.0923 C.ar    1  UNL1        0.0815
     15 N          62.5968   88.9652   11.8917 N.ar    1  UNL1       -0.3166
     16 C          62.0614   88.1486   10.7531 C.3     1  UNL1        0.0900
     17 C          62.9956   87.3279    9.9143 C.3     1  UNL1        0.0441
     18 C          62.4602   86.5113    8.7757 C.3     1  UNL1        0.0954
     19 N          60.9905   86.5154    8.4758 N.am    1  UNL1       -0.2774
     20 C          60.4551   85.6988    7.3371 C.2     1  UNL1        0.2556
     21 O          58.9854   85.7030    7.0373 O.2     1  UNL1       -0.2722
     22 C          60.0562   87.3361    9.3145 C.3     1  UNL1        0.0954
     23 C          60.5916   88.1527   10.4532 C.3     1  UNL1        0.0441
     24 C          61.3894   84.8781    6.4984 C.3     1  UNL1        0.2232
     25 O          60.8452   83.8121    5.5941 O.3     1  UNL1       -0.3737
     26 H          60.4456   83.1079    6.1284 H       1  UNL1        0.2110
     27 C          63.3906   83.3263   12.1435 C.ar    1  UNL1        0.0129
     28 C          63.9237   83.2572   10.7431 C.ar    1  UNL1        0.0040
     29 C          63.5716   82.0946    9.8631 C.ar    1  UNL1        0.0377
     30 C          62.6864   81.0011   10.3835 C.ar    1  UNL1        0.1495
     31 C          62.1533   81.0703   11.7839 C.ar    1  UNL1        0.0490
     32 C          62.5054   82.2329   12.6639 C.ar    1  UNL1        0.0608
     33 CL         61.9724   82.3020   14.0642 Cl      1  UNL1       -0.0821
     34 O          62.3343   79.8385    9.5035 O.3     1  UNL1       -0.4223
     35 C          63.1127   78.5601    9.6027 C.ar    1  UNL1        0.3246
     36 N          64.1966   78.2630    8.6092 N.ar    1  UNL1       -0.1924
     37 C          64.9750   76.9846    8.7083 C.ar    1  UNL1        0.1053
     38 C          64.6695   76.0033    9.8009 C.ar    1  UNL1        0.0416
     39 C          63.5856   76.3005   10.7944 C.ar    1  UNL1        0.1053
     40 N          62.8073   77.5788   10.6953 N.ar    1  UNL1       -0.1924
@<TRIPOS>BOND
     1     1     2    1
     2     2     3   ar
     3     3     4   ar
     4     4     5   ar
     5     5     6   ar
     6     6     7   ar
     7     7     8   ar
     8     8     9   ar
     9     9    10    1
    10     9    11   ar
    11    11    27    1
    12    27    28   ar
    13    28    29   ar
    14    29    30   ar
    15    30    34    1
    16    34    35    1
    17    35    36   ar
    18    36    37   ar
    19    37    38   ar
    20    38    39   ar
    21    39    40   ar
    22    30    31   ar
    23    31    32   ar
    24    32    33    1
    25    11    12   ar
    26    12    13   ar
    27    13    14   ar
    28    14    15   ar
    29    15    16    1
    30    16    17    1
    31    17    18    1
    32    18    19    1
    33    19    20   am
    34    20    21    2
    35    20    24    1
    36    24    25    1
    37    19    22    1
    38    22    23    1
    39    15     2   ar
    40    23    16    1
    41    14     4   ar
    42    13     7   ar
    43    32    27   ar
    44    40    35   ar
    45    25    26    1
@<TRIPOS>MOLECULE
*****
 40 45 0 0 0
SMALL
GASTEIGER

@<TRIPOS>ATOM
      1 C          63.2670   91.5143   10.4041 C.3     1  UNL1        0.0718
      2 C          63.3232   91.0911   11.8421 C.ar    1  UNL1        0.1207
      3 N          63.4760   92.0021   13.0239 N.ar    1  UNL1       -0.2294
      4 C          63.4838   91.1567   14.2630 C.ar    1  UNL1        0.1174
      5 C          63.6065   91.5069   15.7163 C.ar    1  UNL1        0.1193
      6 N          63.5812   90.4237   16.7535 N.ar    1  UNL1       -0.2421
      7 C          63.4332   88.9902   16.3375 C.ar    1  UNL1        0.0850
      8 C          63.4079   87.9069   17.3748 C.ar    1  UNL1        0.0488
      9 C          63.2599   86.4734   16.9587 C.ar    1  UNL1        0.1416
     10 F          63.2347   85.3902   17.9960 F       1  UNL1       -0.2041
     11 C          63.1372   86.1232   15.5053 C.ar    1  UNL1        0.0284
     12 C          63.1625   87.2064   14.4681 C.ar    1  UNL1        0.0052
     13 C          63.3105   88.6399   14.8841 C.ar    1  UNL1        0.0351
     14 C          63.3358   89.7231   13.8469 C.ar    1  UNL1        0.0815
     15 N          63.2366   89.6827   12.3507 N.ar    1  UNL1       -0.3166
     16 C          63.0784   88.4500   11.5107 C.3     1  UNL1        0.0900
     17 C          62.6704   88.5699   10.0723 C.3     1  UNL1        0.0441
     18 C          62.5123   87.3373    9.2323 C.3     1  UNL1        0.0954
     19 N          62.7622   85.9847    9.8306 N.am    1  UNL1       -0.2774
     20 C          62.6041   84.7521    8.9906 C.2     1  UNL1        0.2556
     21 O          62.8540   83.3996    9.5890 O.2     1  UNL1       -0.2722
     22 C          63.1702   85.8648   11.2691 C.3     1  UNL1        0.0954
     23 C          63.3284   87.0974   12.1091 C.3     1  UNL1        0.0441
     24 C          62.1960   84.8721    7.5522 C.3     1  UNL1        0.2232
     25 O          60.7754   85.2014    7.2006 O.3     1  UNL1       -0.3737
     26 H          60.1974   84.4717    7.4730 H       1  UNL1        0.2110
     27 C          62.9892   84.6896   15.0892 C.ar    1  UNL1        0.0129
     28 C          61.6484   84.0214   15.1646 C.ar    1  UNL1        0.0040
     29 C          61.5004   82.5879   14.7485 C.ar    1  UNL1        0.0377
     30 C          62.6933   81.8226   14.2571 C.ar    1  UNL1        0.1495
     31 C          64.0340   82.4908   14.1817 C.ar    1  UNL1        0.0490
     32 C          64.1820   83.9244   14.5978 C.ar    1  UNL1        0.0608
     33 CL         65.5228   84.5926   14.5224 Cl      1  UNL1       -0.0821
     34 O          62.5453   80.3891   13.8410 O.3     1  UNL1       -0.4223
     35 C          62.6772   80.0102   12.3956 C.ar    1  UNL1        0.3246
     36 N          62.9688   81.0631   11.3678 N.ar    1  UNL1       -0.1924
     37 C          63.1007   80.6843    9.9224 C.ar    1  UNL1        0.1053
     38 C          62.9411   79.2524    9.5049 C.ar    1  UNL1        0.0416
     39 C          62.6496   78.1995   10.5327 C.ar    1  UNL1        0.1053
     40 N          62.5176   78.5784   11.9780 N.ar    1  UNL1       -0.1924
@<TRIPOS>BOND
     1     1     2    1
     2     2     3   ar
     3     3     4   ar
     4     4     5   ar
     5     5     6   ar
     6     6     7   ar
     7     7     8   ar
     8     8     9   ar
     9     9    10    1
    10     9    11   ar
    11    11    27    1
    12    27    28   ar
    13    28    29   ar
    14    29    30   ar
    15    30    34    1
    16    34    35    1
    17    35    36   ar
    18    36    37   ar
    19    37    38   ar
    20    38    39   ar
    21    39    40   ar
    22    30    31   ar
    23    31    32   ar
    24    32    33    1
    25    11    12   ar
    26    12    13   ar
    27    13    14   ar
    28    14    15   ar
    29    15    16    1
    30    16    17    1
    31    17    18    1
    32    18    19    1
    33    19    20   am
    34    20    21    2
    35    20    24    1
    36    24    25    1
    37    19    22    1
    38    22    23    1
    39    15     2   ar
    40    23    16    1
    41    14     4   ar
    42    13     7   ar
    43    32    27   ar
    44    40    35   ar
    45    25    26    1
@<TRIPOS>MOLECULE
*****
 40 45 0 0 0
SMALL
GASTEIGER

@<TRIPOS>ATOM
      1 C          63.9304   85.6054   17.3486 C.3     1  UNL1        0.0718
      2 C          63.7174   86.7382   16.3888 C.ar    1  UNL1        0.1207
      3 N          63.8001   88.1995   16.7172 N.ar    1  UNL1       -0.2294
      4 C          63.5181   88.9731   15.4634 C.ar    1  UNL1        0.1174
      5 C          63.4622   90.4458   15.1839 C.ar    1  UNL1        0.1193
      6 N          63.1492   90.9353   13.8010 N.ar    1  UNL1       -0.2421
      7 C          62.8922   89.9521   12.6977 C.ar    1  UNL1        0.0850
      8 C          62.5792   90.4417   11.3147 C.ar    1  UNL1        0.0488
      9 C          62.3222   89.4586   10.2114 C.ar    1  UNL1        0.1416
     10 F          62.0093   89.9481    8.8285 F       1  UNL1       -0.2041
     11 C          62.3782   87.9859   10.4909 C.ar    1  UNL1        0.0284
     12 C          62.6912   87.4964   11.8738 C.ar    1  UNL1        0.0052
     13 C          62.9482   88.4795   12.9772 C.ar    1  UNL1        0.0351
     14 C          63.2611   87.9900   14.3601 C.ar    1  UNL1        0.0815
     15 N          63.3843   86.6088   14.9320 N.ar    1  UNL1       -0.3166
     16 C          63.2057   85.3237   14.1792 C.3     1  UNL1        0.0900
     17 C          63.6800   85.2133   12.7605 C.3     1  UNL1        0.0441
     18 C          63.5014   83.9283   12.0077 C.3     1  UNL1        0.0954
     19 N          62.8485   82.7535   12.6737 N.am    1  UNL1       -0.2774
     20 C          62.6699   81.4684   11.9209 C.2     1  UNL1        0.2556
     21 O          62.0169   80.2937   12.5869 O.2     1  UNL1       -0.2722
     22 C          62.3741   82.8638   14.0924 C.3     1  UNL1        0.0954
     23 C          62.5527   84.1489   14.8452 C.3     1  UNL1        0.0441
     24 C          63.1442   81.3581   10.5022 C.3     1  UNL1        0.2232
     25 O          63.0505   80.0468    9.7799 O.3     1  UNL1       -0.3737
     26 H          63.6427   79.4034   10.1996 H       1  UNL1        0.2110
     27 C          62.1212   87.0027    9.3876 C.ar    1  UNL1        0.0129
     28 C          63.2178   86.0886    8.9271 C.ar    1  UNL1        0.0040
     29 C          62.9608   85.1054    7.8238 C.ar    1  UNL1        0.0377
     30 C          61.6072   85.0365    7.1809 C.ar    1  UNL1        0.1495
     31 C          60.5108   85.9506    7.6414 C.ar    1  UNL1        0.0490
     32 C          60.7678   86.9337    8.7447 C.ar    1  UNL1        0.0608
     33 CL         59.6713   87.8479    9.2052 Cl      1  UNL1       -0.0821
     34 O          61.3502   84.0533    6.0775 O.3     1  UNL1       -0.4223
     35 C          61.6521   84.4254    4.6561 C.ar    1  UNL1        0.3246
     36 N          62.7386   85.4146    4.3543 N.ar    1  UNL1       -0.1924
     37 C          63.0405   85.7866    2.9328 C.ar    1  UNL1        0.1053
     38 C          62.2559   85.1695    1.8132 C.ar    1  UNL1        0.0416
     39 C          61.1694   84.1803    2.1150 C.ar    1  UNL1        0.1053
     40 N          60.8676   83.8082    3.5364 N.ar    1  UNL1       -0.1924
@<TRIPOS>BOND
     1     1     2    1
     2     2     3   ar
     3     3     4   ar
     4     4     5   ar
     5     5     6   ar
     6     6     7   ar
     7     7     8   ar
     8     8     9   ar
     9     9    10    1
    10     9    11   ar
    11    11    27    1
    12    27    28   ar
    13    28    29   ar
    14    29    30   ar
    15    30    34    1
    16    34    35    1
    17    35    36   ar
    18    36    37   ar
    19    37    38   ar
    20    38    39   ar
    21    39    40   ar
    22    30    31   ar
    23    31    32   ar
    24    32    33    1
    25    11    12   ar
    26    12    13   ar
    27    13    14   ar
    28    14    15   ar
    29    15    16    1
    30    16    17    1
    31    17    18    1
    32    18    19    1
    33    19    20   am
    34    20    21    2
    35    20    24    1
    36    24    25    1
    37    19    22    1
    38    22    23    1
    39    15     2   ar
    40    23    16    1
    41    14     4   ar
    42    13     7   ar
    43    32    27   ar
    44    40    35   ar
    45    25    26    1
@<TRIPOS>MOLECULE
*****
 40 45 0 0 0
SMALL
GASTEIGER

@<TRIPOS>ATOM
      1 C          63.6193   84.9390   17.9049 C.3     1  UNL1        0.0718
      2 C          63.3075   84.7067   16.4562 C.ar    1  UNL1        0.1207
      3 N          62.9620   83.3887   15.8290 N.ar    1  UNL1       -0.2294
      4 C          62.7274   83.6190   14.3655 C.ar    1  UNL1        0.1174
      5 C          62.3571   82.6876   13.2496 C.ar    1  UNL1        0.1193
      6 N          62.1872   83.2166   11.8563 N.ar    1  UNL1       -0.2421
      7 C          62.3877   84.6771   11.5790 C.ar    1  UNL1        0.0850
      8 C          62.2178   85.2061   10.1856 C.ar    1  UNL1        0.0488
      9 C          62.4183   86.6666    9.9083 C.ar    1  UNL1        0.1416
     10 F          62.2484   87.1956    8.5150 F       1  UNL1       -0.2041
     11 C          62.7886   87.5980   11.0243 C.ar    1  UNL1        0.0284
     12 C          62.9584   87.0689   12.4176 C.ar    1  UNL1        0.0052
     13 C          62.7580   85.6085   12.6949 C.ar    1  UNL1        0.0351
     14 C          62.9278   85.0794   14.0882 C.ar    1  UNL1        0.0815
     15 N          63.2863   85.7517   15.3803 N.ar    1  UNL1       -0.3166
     16 C          63.5733   87.2124   15.5642 C.3     1  UNL1        0.0900
     17 C          64.6234   87.8816   14.7279 C.3     1  UNL1        0.0441
     18 C          64.9104   89.3423   14.9118 C.3     1  UNL1        0.0954
     19 N          64.1472   90.1340   15.9320 N.am    1  UNL1       -0.2774
     20 C          64.4342   91.5948   16.1159 C.2     1  UNL1        0.2556
     21 O          63.6710   92.3863   17.1361 O.2     1  UNL1       -0.2722
     22 C          63.0971   89.4649   16.7683 C.3     1  UNL1        0.0954
     23 C          62.8101   88.0041   16.5844 C.3     1  UNL1        0.0441
     24 C          65.4844   92.2639   15.2796 C.3     1  UNL1        0.2232
     25 O          66.5262   93.1243   15.9311 O.3     1  UNL1       -0.3737
     26 H          66.1034   93.9070   16.3178 H       1  UNL1        0.2110
     27 C          62.9890   89.0584   10.7470 C.ar    1  UNL1        0.0129
     28 C          64.1075   89.8021   11.4149 C.ar    1  UNL1        0.0040
     29 C          64.3079   91.2625   11.1376 C.ar    1  UNL1        0.0377
     30 C          63.3899   91.9793   10.1923 C.ar    1  UNL1        0.1495
     31 C          62.2715   91.2357    9.5244 C.ar    1  UNL1        0.0490
     32 C          62.0711   89.7752    9.8017 C.ar    1  UNL1        0.0608
     33 CL         60.9527   89.0316    9.1338 Cl      1  UNL1       -0.0821
     34 O          63.5903   93.4398    9.9150 O.3     1  UNL1       -0.4223
     35 C          64.9725   94.0226    9.9268 C.ar    1  UNL1        0.3246
     36 N          65.1611   95.5023   10.0843 N.ar    1  UNL1       -0.1924
     37 C          66.5432   96.0852   10.0962 C.ar    1  UNL1        0.1053
     38 C          67.7367   95.1883    9.9506 C.ar    1  UNL1        0.0416
     39 C          67.5480   93.7085    9.7931 C.ar    1  UNL1        0.1053
     40 N          66.1659   93.1257    9.7812 N.ar    1  UNL1       -0.1924
@<TRIPOS>BOND
     1     1     2    1
     2     2     3   ar
     3     3     4   ar
     4     4     5   ar
     5     5     6   ar
     6     6     7   ar
     7     7     8   ar
     8     8     9   ar
     9     9    10    1
    10     9    11   ar
    11    11    27    1
    12    27    28   ar
    13    28    29   ar
    14    29    30   ar
    15    30    34    1
    16    34    35    1
    17    35    36   ar
    18    36    37   ar
    19    37    38   ar
    20    38    39   ar
    21    39    40   ar
    22    30    31   ar
    23    31    32   ar
    24    32    33    1
    25    11    12   ar
    26    12    13   ar
    27    13    14   ar
    28    14    15   ar
    29    15    16    1
    30    16    17    1
    31    17    18    1
    32    18    19    1
    33    19    20   am
    34    20    21    2
    35    20    24    1
    36    24    25    1
    37    19    22    1
    38    22    23    1
    39    15     2   ar
    40    23    16    1
    41    14     4   ar
    42    13     7   ar
    43    32    27   ar
    44    40    35   ar
    45    25    26    1
@<TRIPOS>MOLECULE
*****
 40 45 0 0 0
SMALL
GASTEIGER

@<TRIPOS>ATOM
      1 C          62.8277   80.0451   15.1432 C.3     1  UNL1        0.0718
      2 C          62.8328   80.6247   13.7597 C.ar    1  UNL1        0.1207
      3 N          62.8289   79.8461   12.4776 N.ar    1  UNL1       -0.2294
      4 C          62.8363   80.8248   11.3409 C.ar    1  UNL1        0.1174
      5 C          62.8364   80.6349    9.8530 C.ar    1  UNL1        0.1193
      6 N          62.8450   81.8286    8.9446 N.ar    1  UNL1       -0.2421
      7 C          62.8535   83.2121    9.5242 C.ar    1  UNL1        0.0850
      8 C          62.8621   84.4057    8.6158 C.ar    1  UNL1        0.0488
      9 C          62.8706   85.7892    9.1953 C.ar    1  UNL1        0.1416
     10 F          62.8792   86.9828    8.2870 F       1  UNL1       -0.2041
     11 C          62.8705   85.9790   10.6833 C.ar    1  UNL1        0.0284
     12 C          62.8619   84.7854   11.5917 C.ar    1  UNL1        0.0052
     13 C          62.8534   83.4019   11.0121 C.ar    1  UNL1        0.0351
     14 C          62.8448   82.2083   11.9204 C.ar    1  UNL1        0.0815
     15 N          62.8426   82.0846   13.4153 N.ar    1  UNL1       -0.3166
     16 C          62.8491   83.2213   14.3941 C.3     1  UNL1        0.0900
     17 C          63.6338   84.4641   14.0949 C.3     1  UNL1        0.0441
     18 C          63.6403   85.6008   15.0736 C.3     1  UNL1        0.0954
     19 N          62.8621   85.4947   16.3516 N.am    1  UNL1       -0.2774
     20 C          62.8686   86.6314   17.3303 C.2     1  UNL1        0.2556
     21 O          62.0905   86.5252   18.6082 O.2     1  UNL1       -0.2722
     22 C          62.0774   84.2518   16.6508 C.3     1  UNL1        0.0954
     23 C          62.0709   83.1151   15.6721 C.3     1  UNL1        0.0441
     24 C          63.6533   87.8742   17.0310 C.3     1  UNL1        0.2232
     25 O          62.9512   89.1028   16.5334 O.3     1  UNL1       -0.3737
     26 H          62.5802   88.9294   15.6541 H       1  UNL1        0.2110
     27 C          62.8790   87.3625   11.2629 C.ar    1  UNL1        0.0129
     28 C          63.6836   87.6547   12.4947 C.ar    1  UNL1        0.0040
     29 C          63.6921   89.0382   13.0743 C.ar    1  UNL1        0.0377
     30 C          62.8959   90.1295   12.4220 C.ar    1  UNL1        0.1495
     31 C          62.0914   89.8373   11.1903 C.ar    1  UNL1        0.0490
     32 C          62.0829   88.4538   10.6107 C.ar    1  UNL1        0.0608
     33 CL         61.2784   88.1616    9.3790 Cl      1  UNL1       -0.0821
     34 O          62.9044   91.5130   13.0016 O.3     1  UNL1       -0.4223
     35 C          63.9980   91.9255   13.9418 C.ar    1  UNL1        0.3246
     36 N          65.2399   92.5760   13.4085 N.ar    1  UNL1       -0.1924
     37 C          66.3335   92.9886   14.3487 C.ar    1  UNL1        0.1053
     38 C          66.1851   92.7506   15.8223 C.ar    1  UNL1        0.0416
     39 C          64.9431   92.1002   16.3556 C.ar    1  UNL1        0.1053
     40 N          63.8496   91.6876   15.4154 N.ar    1  UNL1       -0.1924
@<TRIPOS>BOND
     1     1     2    1
     2     2     3   ar
     3     3     4   ar
     4     4     5   ar
     5     5     6   ar
     6     6     7   ar
     7     7     8   ar
     8     8     9   ar
     9     9    10    1
    10     9    11   ar
    11    11    27    1
    12    27    28   ar
    13    28    29   ar
    14    29    30   ar
    15    30    34    1
    16    34    35    1
    17    35    36   ar
    18    36    37   ar
    19    37    38   ar
    20    38    39   ar
    21    39    40   ar
    22    30    31   ar
    23    31    32   ar
    24    32    33    1
    25    11    12   ar
    26    12    13   ar
    27    13    14   ar
    28    14    15   ar
    29    15    16    1
    30    16    17    1
    31    17    18    1
    32    18    19    1
    33    19    20   am
    34    20    21    2
    35    20    24    1
    36    24    25    1
    37    19    22    1
    38    22    23    1
    39    15     2   ar
    40    23    16    1
    41    14     4   ar
    42    13     7   ar
    43    32    27   ar
    44    40    35   ar
    45    25    26    1
@<TRIPOS>MOLECULE
*****
 40 45 0 0 0
SMALL
GASTEIGER

@<TRIPOS>ATOM
      1 C          61.9058   81.8490   13.7759 C.3     1  UNL1        0.0718
      2 C          62.1834   83.0139   14.6793 C.ar    1  UNL1        0.1207
      3 N          62.2178   82.9784   16.1785 N.ar    1  UNL1       -0.2294
      4 C          62.5310   84.3613   16.6678 C.ar    1  UNL1        0.1174
      5 C          62.6918   84.9250   18.0485 C.ar    1  UNL1        0.1193
      6 N          63.0118   86.3789   18.2324 N.ar    1  UNL1       -0.2421
      7 C          63.1709   87.2691   17.0357 C.ar    1  UNL1        0.0850
      8 C          63.4909   88.7230   17.2197 C.ar    1  UNL1        0.0488
      9 C          63.6500   89.6132   16.0229 C.ar    1  UNL1        0.1416
     10 F          63.9700   91.0670   16.2069 F       1  UNL1       -0.2041
     11 C          63.4892   89.0494   14.6422 C.ar    1  UNL1        0.0284
     12 C          63.1693   87.5956   14.4582 C.ar    1  UNL1        0.0052
     13 C          63.0101   86.7054   15.6550 C.ar    1  UNL1        0.0351
     14 C          62.6901   85.2515   15.4711 C.ar    1  UNL1        0.0815
     15 N          62.4753   84.4188   14.2421 N.ar    1  UNL1       -0.3166
     16 C          62.5409   84.9054   12.8248 C.3     1  UNL1        0.0900
     17 C          61.6424   86.0175   12.3713 C.3     1  UNL1        0.0441
     18 C          61.7080   86.5042   10.9539 C.3     1  UNL1        0.0954
     19 N          62.6722   85.8788    9.9900 N.am    1  UNL1       -0.2774
     20 C          62.7378   86.3654    8.5727 C.2     1  UNL1        0.2556
     21 O          63.7020   85.7400    7.6089 O.2     1  UNL1       -0.2722
     22 C          63.5708   84.7666   10.4435 C.3     1  UNL1        0.0954
     23 C          63.5052   84.2799   11.8608 C.3     1  UNL1        0.0441
     24 C          61.8392   87.4776    8.1192 C.3     1  UNL1        0.2232
     25 O          60.3802   87.2162    7.8885 O.3     1  UNL1       -0.3737
     26 H          60.2751   86.6073    7.1407 H       1  UNL1        0.2110
     27 C          63.6484   89.9396   13.4454 C.ar    1  UNL1        0.0129
     28 C          62.6174   89.9230   12.3559 C.ar    1  UNL1        0.0040
     29 C          62.7766   90.8132   11.1592 C.ar    1  UNL1        0.0377
     30 C          63.9667   91.7200   11.0519 C.ar    1  UNL1        0.1495
     31 C          64.9976   91.7365   12.1413 C.ar    1  UNL1        0.0490
     32 C          64.8384   90.8464   13.3381 C.ar    1  UNL1        0.0608
     33 CL         65.8693   90.8629   14.4275 Cl      1  UNL1       -0.0821
     34 O          64.1259   92.6102    9.8551 O.3     1  UNL1       -0.4223
     35 C          65.2443   93.6086    9.8065 C.ar    1  UNL1        0.3246
     36 N          66.6331   93.1626    9.4567 N.ar    1  UNL1       -0.1924
     37 C          67.7516   94.1609    9.4081 C.ar    1  UNL1        0.1053
     38 C          67.4812   95.6053    9.7092 C.ar    1  UNL1        0.0416
     39 C          66.0923   96.0513   10.0589 C.ar    1  UNL1        0.1053
     40 N          64.9740   95.0529   10.1076 N.ar    1  UNL1       -0.1924
@<TRIPOS>BOND
     1     1     2    1
     2     2     3   ar
     3     3     4   ar
     4     4     5   ar
     5     5     6   ar
     6     6     7   ar
     7     7     8   ar
     8     8     9   ar
     9     9    10    1
    10     9    11   ar
    11    11    27    1
    12    27    28   ar
    13    28    29   ar
    14    29    30   ar
    15    30    34    1
    16    34    35    1
    17    35    36   ar
    18    36    37   ar
    19    37    38   ar
    20    38    39   ar
    21    39    40   ar
    22    30    31   ar
    23    31    32   ar
    24    32    33    1
    25    11    12   ar
    26    12    13   ar
    27    13    14   ar
    28    14    15   ar
    29    15    16    1
    30    16    17    1
    31    17    18    1
    32    18    19    1
    33    19    20   am
    34    20    21    2
    35    20    24    1
    36    24    25    1
    37    19    22    1
    38    22    23    1
    39    15     2   ar
    40    23    16    1
    41    14     4   ar
    42    13     7   ar
    43    32    27   ar
    44    40    35   ar
    45    25    26    1
