@<TRIPOS>MOLECULE
*****
 25 27 0 0 0
SMALL
GASTEIGER

@<TRIPOS>ATOM
      1 N          62.7422   89.9077   14.4456 N.pl3   1  UNL1       -0.3413
      2 C          63.6055   90.7726   13.5758 C.ar    1  UNL1        0.1477
      3 N          64.6553   91.6476   14.1942 N.ar    1  UNL1       -0.2263
      4 C          65.5186   92.5125   13.3244 C.ar    1  UNL1        0.1194
      5 C          65.3321   92.5025   11.8361 C.ar    1  UNL1        0.1021
      6 N          64.2824   91.6276   11.2176 N.ar    1  UNL1       -0.2363
      7 C          63.4191   90.7627   12.0875 C.ar    1  UNL1        0.1657
      8 H          62.8646   89.9143   15.4225 H       1  UNL1        0.1438
      9 H          62.0532   89.3335   14.0397 H       1  UNL1        0.1438
     10 C          66.1954   93.3674   10.9662 C.ar    1  UNL1        0.0384
     11 C          67.1908   92.7394   10.0363 C.ar    1  UNL1        0.0047
     12 C          68.0541   93.6043    9.1664 C.ar    1  UNL1        0.0207
     13 C          67.9220   95.0972    9.2265 C.ar    1  UNL1        0.0989
     14 N          66.9267   95.7252   10.1564 N.ar    1  UNL1       -0.2423
     15 C          66.0634   94.8603   11.0263 C.ar    1  UNL1        0.1004
     16 C          62.3693   89.8877   11.4689 C.2     1  UNL1        0.2700
     17 O          61.1073   89.5845   12.2208 O.2     1  UNL1       -0.2681
     18 N          62.5816   89.3160   10.0985 N.am    1  UNL1       -0.2791
     19 H          63.4099   89.5151    9.6050 H       1  UNL1        0.1552
     20 C          61.5319   88.4411    9.4799 C.ar    1  UNL1        0.0506
     21 C          61.6611   86.9485    9.5531 C.ar    1  UNL1        0.0147
     22 C          60.6113   86.0736    8.9345 C.ar    1  UNL1        0.0013
     23 C          59.4324   86.6914    8.2428 C.ar    1  UNL1        0.0001
     24 C          59.3032   88.1840    8.1697 C.ar    1  UNL1        0.0013
     25 C          60.3529   89.0589    8.7882 C.ar    1  UNL1        0.0147
@<TRIPOS>BOND
     1     1     2    1
     2     2     3   ar
     3     3     4   ar
     4     4     5   ar
     5     5    10    1
     6    10    11   ar
     7    11    12   ar
     8    12    13   ar
     9    13    14   ar
    10    14    15   ar
    11     5     6   ar
    12     6     7   ar
    13     7    16    1
    14    16    17    2
    15    16    18   am
    16    18    20    1
    17    20    21   ar
    18    21    22   ar
    19    22    23   ar
    20    23    24   ar
    21    24    25   ar
    22     7     2   ar
    23    25    20   ar
    24    15    10   ar
    25     1     8    1
    26     1     9    1
    27    18    19    1
@<TRIPOS>MOLECULE
*****
 25 27 0 0 0
SMALL
GASTEIGER

@<TRIPOS>ATOM
      1 N          62.6178   85.8588   17.3615 N.pl3   1  UNL1       -0.3413
      2 C          63.1129   86.9904   16.5104 C.ar    1  UNL1        0.1477
      3 N          63.0520   88.3981   17.0248 N.ar    1  UNL1       -0.2263
      4 C          63.5471   89.5297   16.1737 C.ar    1  UNL1        0.1194
      5 C          64.1031   89.2536   14.8082 C.ar    1  UNL1        0.1021
      6 N          64.1640   87.8459   14.2938 N.ar    1  UNL1       -0.2363
      7 C          63.6688   86.7143   15.1449 C.ar    1  UNL1        0.1657
      8 H          62.2528   86.0400   18.2578 H       1  UNL1        0.1438
      9 H          62.6577   84.9349   17.0239 H       1  UNL1        0.1438
     10 C          64.5982   90.3851   13.9571 C.ar    1  UNL1        0.0384
     11 C          65.8120   91.1616   14.3738 C.ar    1  UNL1        0.0047
     12 C          66.3071   92.2932   13.5227 C.ar    1  UNL1        0.0207
     13 C          65.5884   92.6483   12.2549 C.ar    1  UNL1        0.0989
     14 N          64.3746   91.8718   11.8382 N.ar    1  UNL1       -0.2423
     15 C          63.8795   90.7403   12.6893 C.ar    1  UNL1        0.1004
     16 C          63.7297   85.3065   14.6305 C.2     1  UNL1        0.2700
     17 O          65.0034   84.5220   14.7411 O.2     1  UNL1       -0.2681
     18 N          62.5169   84.6834   14.0054 N.am    1  UNL1       -0.2791
     19 H          61.6810   85.1983   13.9327 H       1  UNL1        0.1552
     20 C          62.5778   83.2757   13.4909 C.ar    1  UNL1        0.0506
     21 C          62.2065   82.1325   14.3883 C.ar    1  UNL1        0.0147
     22 C          62.2673   80.7248   13.8738 C.ar    1  UNL1        0.0013
     23 C          62.6994   80.4603   12.4620 C.ar    1  UNL1        0.0001
     24 C          63.0707   81.6035   11.5646 C.ar    1  UNL1        0.0013
     25 C          63.0099   83.0111   12.0790 C.ar    1  UNL1        0.0147
@<TRIPOS>BOND
     1     1     2    1
     2     2     3   ar
     3     3     4   ar
     4     4     5   ar
     5     5    10    1
     6    10    11   ar
     7    11    12   ar
     8    12    13   ar
     9    13    14   ar
    10    14    15   ar
    11     5     6   ar
    12     6     7   ar
    13     7    16    1
    14    16    17    2
    15    16    18   am
    16    18    20    1
    17    20    21   ar
    18    21    22   ar
    19    22    23   ar
    20    23    24   ar
    21    24    25   ar
    22     7     2   ar
    23    25    20   ar
    24    15    10   ar
    25     1     8    1
    26     1     9    1
    27    18    19    1
@<TRIPOS>MOLECULE
*****
 25 27 0 0 0
SMALL
GASTEIGER

@<TRIPOS>ATOM
      1 N          61.2620   87.8975    9.2348 N.pl3   1  UNL1       -0.3413
      2 C          62.0092   88.6492   10.2962 C.ar    1  UNL1        0.1477
      3 N          62.2553   90.1207   10.1407 N.ar    1  UNL1       -0.2263
      4 C          63.0025   90.8724   11.2021 C.ar    1  UNL1        0.1194
      5 C          63.5035   90.1527   12.4191 C.ar    1  UNL1        0.1021
      6 N          63.2574   88.6813   12.5746 N.ar    1  UNL1       -0.2363
      7 C          62.5102   87.9295   11.5132 C.ar    1  UNL1        0.1657
      8 H          60.9331   88.3698    8.4361 H       1  UNL1        0.1438
      9 H          61.1004   86.9317    9.3369 H       1  UNL1        0.1438
     10 C          64.2507   90.9045   13.4805 C.ar    1  UNL1        0.0384
     11 C          65.4853   91.6780   13.1234 C.ar    1  UNL1        0.0047
     12 C          66.2325   92.4297   14.1848 C.ar    1  UNL1        0.0207
     13 C          65.7451   92.4080   15.6033 C.ar    1  UNL1        0.0989
     14 N          64.5106   91.6344   15.9603 N.ar    1  UNL1       -0.2423
     15 C          63.7634   90.8827   14.8989 C.ar    1  UNL1        0.1004
     16 C          62.2641   86.4580   11.6687 C.2     1  UNL1        0.2700
     17 O          61.1795   85.7910   10.8758 O.2     1  UNL1       -0.2681
     18 N          63.1026   85.6535   12.6173 N.am    1  UNL1       -0.2791
     19 H          63.8145   86.0913   13.1377 H       1  UNL1        0.1552
     20 C          62.8565   84.1821   12.7729 C.ar    1  UNL1        0.0506
     21 C          62.4048   83.6327   14.0935 C.ar    1  UNL1        0.0147
     22 C          62.1587   82.1612   14.2491 C.ar    1  UNL1        0.0013
     23 C          62.3644   81.2391   13.0840 C.ar    1  UNL1        0.0001
     24 C          62.8161   81.7885   11.7633 C.ar    1  UNL1        0.0013
     25 C          63.0622   83.2599   11.6077 C.ar    1  UNL1        0.0147
@<TRIPOS>BOND
     1     1     2    1
     2     2     3   ar
     3     3     4   ar
     4     4     5   ar
     5     5    10    1
     6    10    11   ar
     7    11    12   ar
     8    12    13   ar
     9    13    14   ar
    10    14    15   ar
    11     5     6   ar
    12     6     7   ar
    13     7    16    1
    14    16    17    2
    15    16    18   am
    16    18    20    1
    17    20    21   ar
    18    21    22   ar
    19    22    23   ar
    20    23    24   ar
    21    24    25   ar
    22     7     2   ar
    23    25    20   ar
    24    15    10   ar
    25     1     8    1
    26     1     9    1
    27    18    19    1
@<TRIPOS>MOLECULE
*****
 25 27 0 0 0
SMALL
GASTEIGER

@<TRIPOS>ATOM
      1 N          60.9108   90.4353   11.0564 N.pl3   1  UNL1       -0.3413
      2 C          61.3748   89.0126   11.1598 C.ar    1  UNL1        0.1477
      3 N          60.6282   87.9264   10.4438 N.ar    1  UNL1       -0.2263
      4 C          61.0922   86.5037   10.5472 C.ar    1  UNL1        0.1194
      5 C          62.3027   86.1673   11.3665 C.ar    1  UNL1        0.1021
      6 N          63.0492   87.2535   12.0825 N.ar    1  UNL1       -0.2363
      7 C          62.5853   88.6762   11.9791 C.ar    1  UNL1        0.1657
      8 H          60.1163   90.6561   10.5186 H       1  UNL1        0.1438
      9 H          61.4008   91.1483   11.5263 H       1  UNL1        0.1438
     10 C          62.7666   84.7446   11.4699 C.ar    1  UNL1        0.0384
     11 C          63.3940   84.0723   10.2849 C.ar    1  UNL1        0.0047
     12 C          63.8580   82.6496   10.3883 C.ar    1  UNL1        0.0207
     13 C          63.6946   81.8992   11.6767 C.ar    1  UNL1        0.0989
     14 N          63.0672   82.5715   12.8618 N.ar    1  UNL1       -0.2423
     15 C          62.6032   83.9942   12.7584 C.ar    1  UNL1        0.1004
     16 C          63.3319   89.7625   12.6951 C.2     1  UNL1        0.2700
     17 O          63.4169   91.1349   12.0957 O.2     1  UNL1       -0.2681
     18 N          63.9936   89.4763   14.0105 N.am    1  UNL1       -0.2791
     19 H          63.9378   88.5756   14.4039 H       1  UNL1        0.1552
     20 C          64.7402   90.5625   14.7266 C.ar    1  UNL1        0.0506
     21 C          66.0911   90.9926   14.2367 C.ar    1  UNL1        0.0147
     22 C          66.8377   92.0788   14.9528 C.ar    1  UNL1        0.0013
     23 C          66.2334   92.7349   16.1587 C.ar    1  UNL1        0.0001
     24 C          64.8824   92.3049   16.6485 C.ar    1  UNL1        0.0013
     25 C          64.1358   91.2187   15.9325 C.ar    1  UNL1        0.0147
@<TRIPOS>BOND
     1     1     2    1
     2     2     3   ar
     3     3     4   ar
     4     4     5   ar
     5     5    10    1
     6    10    11   ar
     7    11    12   ar
     8    12    13   ar
     9    13    14   ar
    10    14    15   ar
    11     5     6   ar
    12     6     7   ar
    13     7    16    1
    14    16    17    2
    15    16    18   am
    16    18    20    1
    17    20    21   ar
    18    21    22   ar
    19    22    23   ar
    20    23    24   ar
    21    24    25   ar
    22     7     2   ar
    23    25    20   ar
    24    15    10   ar
    25     1     8    1
    26     1     9    1
    27    18    19    1
@<TRIPOS>MOLECULE
*****
 25 27 0 0 0
SMALL
GASTEIGER

@<TRIPOS>ATOM
      1 N          63.1401   89.8803   17.0645 N.pl3   1  UNL1       -0.3413
      2 C          63.2928   88.5450   16.3984 C.ar    1  UNL1        0.1477
      3 N          63.0067   87.2876   17.1645 N.ar    1  UNL1       -0.2263
      4 C          63.1594   85.9523   16.4984 C.ar    1  UNL1        0.1194
      5 C          63.5983   85.8745   15.0661 C.ar    1  UNL1        0.1021
      6 N          63.8844   87.1319   14.3000 N.ar    1  UNL1       -0.2363
      7 C          63.7316   88.4672   14.9662 C.ar    1  UNL1        0.1657
      8 H          62.8521   89.9313   18.0046 H       1  UNL1        0.1438
      9 H          63.3279   90.7056   16.5617 H       1  UNL1        0.1438
     10 C          63.7510   84.5392   14.4000 C.ar    1  UNL1        0.0384
     11 C          64.2345   84.4592   12.9824 C.ar    1  UNL1        0.0047
     12 C          64.3872   83.1239   12.3162 C.ar    1  UNL1        0.0207
     13 C          64.0564   81.8686   13.0678 C.ar    1  UNL1        0.0989
     14 N          63.5729   81.9486   14.4854 N.ar    1  UNL1       -0.2423
     15 C          63.4202   83.2839   15.1515 C.ar    1  UNL1        0.1004
     16 C          64.0178   89.7246   14.2000 C.2     1  UNL1        0.2700
     17 O          62.9865   90.2848   13.2659 O.2     1  UNL1       -0.2681
     18 N          65.3352   90.4219   14.3680 N.am    1  UNL1       -0.2791
     19 H          66.0121   90.0542   14.9811 H       1  UNL1        0.1552
     20 C          65.6214   91.6793   13.6018 C.ar    1  UNL1        0.0506
     21 C          66.2993   92.8328   14.2799 C.ar    1  UNL1        0.0147
     22 C          66.5854   94.0903   13.5137 C.ar    1  UNL1        0.0013
     23 C          66.1937   94.1941   12.0695 C.ar    1  UNL1        0.0001
     24 C          65.5158   93.0406   11.3915 C.ar    1  UNL1        0.0013
     25 C          65.2296   91.7832   12.1576 C.ar    1  UNL1        0.0147
@<TRIPOS>BOND
     1     1     2    1
     2     2     3   ar
     3     3     4   ar
     4     4     5   ar
     5     5    10    1
     6    10    11   ar
     7    11    12   ar
     8    12    13   ar
     9    13    14   ar
    10    14    15   ar
    11     5     6   ar
    12     6     7   ar
    13     7    16    1
    14    16    17    2
    15    16    18   am
    16    18    20    1
    17    20    21   ar
    18    21    22   ar
    19    22    23   ar
    20    23    24   ar
    21    24    25   ar
    22     7     2   ar
    23    25    20   ar
    24    15    10   ar
    25     1     8    1
    26     1     9    1
    27    18    19    1
@<TRIPOS>MOLECULE
*****
 25 27 0 0 0
SMALL
GASTEIGER

@<TRIPOS>ATOM
      1 N          60.7943   90.4736   10.4513 N.pl3   1  UNL1       -0.3413
      2 C          61.2590   89.0877   10.7876 C.ar    1  UNL1        0.1477
      3 N          60.4471   87.9004   10.3621 N.ar    1  UNL1       -0.2263
      4 C          60.9119   86.5145   10.6984 C.ar    1  UNL1        0.1194
      5 C          62.1886   86.3158   11.4603 C.ar    1  UNL1        0.1021
      6 N          63.0006   87.5030   11.8858 N.ar    1  UNL1       -0.2363
      7 C          62.5358   88.8890   11.5495 C.ar    1  UNL1        0.1657
      8 H          59.9563   90.6040    9.9513 H       1  UNL1        0.1438
      9 H          61.3272   91.2529   10.7306 H       1  UNL1        0.1438
     10 C          62.6534   84.9298   11.7966 C.ar    1  UNL1        0.0384
     11 C          62.5978   84.4435   13.2144 C.ar    1  UNL1        0.0047
     12 C          63.0626   83.0575   13.5507 C.ar    1  UNL1        0.0207
     13 C          63.5830   82.1579   12.4692 C.ar    1  UNL1        0.0989
     14 N          63.6387   82.6442   11.0513 N.ar    1  UNL1       -0.2423
     15 C          63.1739   84.0302   10.7150 C.ar    1  UNL1        0.1004
     16 C          63.3478   90.0763   11.9750 C.2     1  UNL1        0.2700
     17 O          63.3744   91.3109   11.1236 O.2     1  UNL1       -0.2681
     18 N          64.1332   90.0289   13.2521 N.am    1  UNL1       -0.2791
     19 H          64.1158   89.2186   13.8109 H       1  UNL1        0.1552
     20 C          64.9452   91.2161   13.6777 C.ar    1  UNL1        0.0506
     21 C          65.4038   92.2158   12.6576 C.ar    1  UNL1        0.0147
     22 C          66.2158   93.4030   13.0833 C.ar    1  UNL1        0.0013
     23 C          66.5692   93.5906   14.5289 C.ar    1  UNL1        0.0001
     24 C          66.1106   92.5910   15.5489 C.ar    1  UNL1        0.0013
     25 C          65.2987   91.4038   15.1234 C.ar    1  UNL1        0.0147
@<TRIPOS>BOND
     1     1     2    1
     2     2     3   ar
     3     3     4   ar
     4     4     5   ar
     5     5    10    1
     6    10    11   ar
     7    11    12   ar
     8    12    13   ar
     9    13    14   ar
    10    14    15   ar
    11     5     6   ar
    12     6     7   ar
    13     7    16    1
    14    16    17    2
    15    16    18   am
    16    18    20    1
    17    20    21   ar
    18    21    22   ar
    19    22    23   ar
    20    23    24   ar
    21    24    25   ar
    22     7     2   ar
    23    25    20   ar
    24    15    10   ar
    25     1     8    1
    26     1     9    1
    27    18    19    1
@<TRIPOS>MOLECULE
*****
 25 27 0 0 0
SMALL
GASTEIGER

@<TRIPOS>ATOM
      1 N          66.0630   91.5965   14.9901 N.pl3   1  UNL1       -0.3413
      2 C          65.0998   90.8718   14.0973 C.ar    1  UNL1        0.1477
      3 N          64.4536   89.6016   14.5653 N.ar    1  UNL1       -0.2263
      4 C          63.4905   88.8769   13.6725 C.ar    1  UNL1        0.1194
      5 C          63.1735   89.4223   12.3116 C.ar    1  UNL1        0.1021
      6 N          63.8197   90.6924   11.8436 N.ar    1  UNL1       -0.2363
      7 C          64.7829   91.4172   12.7364 C.ar    1  UNL1        0.1657
      8 H          66.2710   91.2385   15.8833 H       1  UNL1        0.1438
      9 H          66.4871   92.4302   14.6829 H       1  UNL1        0.1438
     10 C          62.2104   88.6976   11.4188 C.ar    1  UNL1        0.0384
     11 C          62.2933   87.2064   11.2799 C.ar    1  UNL1        0.0047
     12 C          61.3301   86.4816   10.3870 C.ar    1  UNL1        0.0207
     13 C          60.2841   87.2481    9.6332 C.ar    1  UNL1        0.0989
     14 N          60.2012   88.7393    9.7722 N.ar    1  UNL1       -0.2423
     15 C          61.1644   89.4640   10.6650 C.ar    1  UNL1        0.1004
     16 C          65.4291   92.6874   12.2683 C.2     1  UNL1        0.2700
     17 O          66.0398   93.6291   13.2633 O.2     1  UNL1       -0.2681
     18 N          65.4644   93.0158   10.8051 N.am    1  UNL1       -0.2791
     19 H          65.0635   92.3978   10.1520 H       1  UNL1        0.1552
     20 C          66.1106   94.2860   10.3370 C.ar    1  UNL1        0.0506
     21 C          65.7960   95.5836   11.0205 C.ar    1  UNL1        0.0147
     22 C          66.4422   96.8538   10.5522 C.ar    1  UNL1        0.0013
     23 C          67.4029   96.8263    9.4006 C.ar    1  UNL1        0.0001
     24 C          67.7174   95.5286    8.7171 C.ar    1  UNL1        0.0013
     25 C          67.0713   94.2585    9.1853 C.ar    1  UNL1        0.0147
@<TRIPOS>BOND
     1     1     2    1
     2     2     3   ar
     3     3     4   ar
     4     4     5   ar
     5     5    10    1
     6    10    11   ar
     7    11    12   ar
     8    12    13   ar
     9    13    14   ar
    10    14    15   ar
    11     5     6   ar
    12     6     7   ar
    13     7    16    1
    14    16    17    2
    15    16    18   am
    16    18    20    1
    17    20    21   ar
    18    21    22   ar
    19    22    23   ar
    20    23    24   ar
    21    24    25   ar
    22     7     2   ar
    23    25    20   ar
    24    15    10   ar
    25     1     8    1
    26     1     9    1
    27    18    19    1
@<TRIPOS>MOLECULE
*****
 25 27 0 0 0
SMALL
GASTEIGER

@<TRIPOS>ATOM
      1 N          64.3983   85.4053   14.4066 N.pl3   1  UNL1       -0.3413
      2 C          63.5621   85.8715   13.2518 C.ar    1  UNL1        0.1477
      3 N          62.9714   84.8722   12.3019 N.ar    1  UNL1       -0.2263
      4 C          62.1352   85.3384   11.1472 C.ar    1  UNL1        0.1194
      5 C          61.8897   86.8039   10.9424 C.ar    1  UNL1        0.1021
      6 N          62.4804   87.8032   11.8923 N.ar    1  UNL1       -0.2363
      7 C          63.3166   87.3370   13.0470 C.ar    1  UNL1        0.1657
      8 H          64.5594   84.4434   14.5410 H       1  UNL1        0.1438
      9 H          64.7860   86.0612   15.0301 H       1  UNL1        0.1438
     10 C          61.0535   87.2701    9.7876 C.ar    1  UNL1        0.0384
     11 C          60.4428   86.2696    8.8517 C.ar    1  UNL1        0.0047
     12 C          59.6066   86.7358    7.6969 C.ar    1  UNL1        0.0207
     13 C          59.3811   88.2025    7.4781 C.ar    1  UNL1        0.0989
     14 N          59.9918   89.2030    8.4141 N.ar    1  UNL1       -0.2423
     15 C          60.8280   88.7368    9.5688 C.ar    1  UNL1        0.1004
     16 C          63.9073   88.3364   13.9970 C.2     1  UNL1        0.2700
     17 O          64.0463   87.9974   15.4515 O.2     1  UNL1       -0.2681
     18 N          64.3590   89.6748   13.4924 N.am    1  UNL1       -0.2791
     19 H          64.2678   89.8973   12.5377 H       1  UNL1        0.1552
     20 C          64.9497   90.6741   14.4422 C.ar    1  UNL1        0.0506
     21 C          64.1703   91.1177   15.6446 C.ar    1  UNL1        0.0147
     22 C          64.7610   92.1172   16.5945 C.ar    1  UNL1        0.0013
     23 C          66.1312   92.6729   16.3420 C.ar    1  UNL1        0.0001
     24 C          66.9106   92.2293   15.1396 C.ar    1  UNL1        0.0013
     25 C          66.3199   91.2299   14.1898 C.ar    1  UNL1        0.0147
@<TRIPOS>BOND
     1     1     2    1
     2     2     3   ar
     3     3     4   ar
     4     4     5   ar
     5     5    10    1
     6    10    11   ar
     7    11    12   ar
     8    12    13   ar
     9    13    14   ar
    10    14    15   ar
    11     5     6   ar
    12     6     7   ar
    13     7    16    1
    14    16    17    2
    15    16    18   am
    16    18    20    1
    17    20    21   ar
    18    21    22   ar
    19    22    23   ar
    20    23    24   ar
    21    24    25   ar
    22     7     2   ar
    23    25    20   ar
    24    15    10   ar
    25     1     8    1
    26     1     9    1
    27    18    19    1
@<TRIPOS>MOLECULE
*****
 25 27 0 0 0
SMALL
GASTEIGER

@<TRIPOS>ATOM
      1 N          60.2109   90.0294   12.8374 N.pl3   1  UNL1       -0.3413
      2 C          60.5148   89.0649   11.7295 C.ar    1  UNL1        0.1477
      3 N          59.3957   88.4503   10.9422 N.ar    1  UNL1       -0.2263
      4 C          59.6996   87.4858    9.8343 C.ar    1  UNL1        0.1194
      5 C          61.1226   87.1360    9.5137 C.ar    1  UNL1        0.1021
      6 N          62.2416   87.7507   10.3010 N.ar    1  UNL1       -0.2363
      7 C          61.9377   88.7151   11.4089 C.ar    1  UNL1        0.1657
      8 H          59.2769   90.2590   13.0478 H       1  UNL1        0.1438
      9 H          60.9454   90.4328   13.3541 H       1  UNL1        0.1438
     10 C          61.4265   86.1715    8.4058 C.ar    1  UNL1        0.0384
     11 C          62.8081   85.6056    8.2620 C.ar    1  UNL1        0.0047
     12 C          63.1120   84.6412    7.1541 C.ar    1  UNL1        0.0207
     13 C          62.0343   84.2426    6.1900 C.ar    1  UNL1        0.0989
     14 N          60.6526   84.8085    6.3338 N.ar    1  UNL1       -0.2423
     15 C          60.3487   85.7730    7.4417 C.ar    1  UNL1        0.1004
     16 C          63.0569   89.3298   12.1962 C.2     1  UNL1        0.2700
     17 O          63.8031   88.5086   13.2055 O.2     1  UNL1       -0.2681
     18 N          63.4297   90.7657   11.9741 N.am    1  UNL1       -0.2791
     19 H          62.9399   91.3046   11.3117 H       1  UNL1        0.1552
     20 C          64.5487   91.3804   12.7614 C.ar    1  UNL1        0.0506
     21 C          65.4267   92.4202   12.1305 C.ar    1  UNL1        0.0147
     22 C          66.5458   93.0349   12.9179 C.ar    1  UNL1        0.0013
     23 C          66.7869   92.6097   14.3359 C.ar    1  UNL1        0.0001
     24 C          65.9090   91.5699   14.9668 C.ar    1  UNL1        0.0013
     25 C          64.7900   90.9552   14.1795 C.ar    1  UNL1        0.0147
@<TRIPOS>BOND
     1     1     2    1
     2     2     3   ar
     3     3     4   ar
     4     4     5   ar
     5     5    10    1
     6    10    11   ar
     7    11    12   ar
     8    12    13   ar
     9    13    14   ar
    10    14    15   ar
    11     5     6   ar
    12     6     7   ar
    13     7    16    1
    14    16    17    2
    15    16    18   am
    16    18    20    1
    17    20    21   ar
    18    21    22   ar
    19    22    23   ar
    20    23    24   ar
    21    24    25   ar
    22     7     2   ar
    23    25    20   ar
    24    15    10   ar
    25     1     8    1
    26     1     9    1
    27    18    19    1
