@<TRIPOS>MOLECULE
*****
 30 34 0 0 0
SMALL
GASTEIGER

@<TRIPOS>ATOM
      1 N          63.5816   88.8944   12.8625 N.pl3   1  UNL1       -0.2892
      2 C          64.2054   88.8225   14.2247 C.3     1  UNL1        0.1095
      3 C          64.8079   90.0511   14.8395 C.3     1  UNL1        0.0939
      4 N          64.7864   91.3514   14.0920 N.3     1  UNL1       -0.2695
      5 C          64.1626   91.4233   12.7298 C.3     1  UNL1        0.0939
      6 C          63.5602   90.1948   12.1151 C.3     1  UNL1        0.1095
      7 C          61.9392   90.4123   10.5606 C.3     1  UNL1        0.1306
      8 N          61.5840   88.9805   10.2890 N.ar    1  UNL1       -0.3217
      9 C          60.6825   88.4878    9.1960 C.ar    1  UNL1        0.0646
     10 C          59.9189   89.2073    8.1241 C.ar    1  UNL1        0.0379
     11 C          59.0821   88.4318    7.1503 C.ar    1  UNL1        0.1004
     12 N          59.0088   86.9368    7.2485 N.ar    1  UNL1       -0.2422
     13 C          59.7724   86.2173    8.3205 C.ar    1  UNL1        0.1018
     14 C          60.6092   86.9928    9.2943 C.ar    1  UNL1        0.0542
     15 C          61.4654   86.5616   10.4480 C.ar    1  UNL1        0.1044
     16 N          61.7743   85.2091   11.0181 N.ar    1  UNL1       -0.2223
     17 C          62.6857   85.0849   12.2031 C.ar    1  UNL1        0.2001
     18 N          63.2881   86.3134   12.8179 N.ar    1  UNL1       -0.2075
     19 C          62.9792   87.6660   12.2477 C.ar    1  UNL1        0.1509
     20 C          62.0679   87.7901   11.0628 C.ar    1  UNL1        0.1100
     21 C          65.3889   92.5798   14.7068 C.3     1  UNL1        0.0769
     22 C          66.6571   93.1535   14.1477 C.3     1  UNL1        0.0437
     23 C          66.7798   93.4076   12.6745 C.ar    1  UNL1       -0.0184
     24 C          66.2911   94.7011   12.0933 C.ar    1  UNL1       -0.0018
     25 C          66.4138   94.9551   10.6200 C.ar    1  UNL1        0.0316
     26 C          67.0252   93.9157    9.7280 C.ar    1  UNL1        0.1674
     27 F          67.1479   94.1697    8.2548 F       1  UNL1       -0.2018
     28 C          67.5140   92.6221   10.3093 C.ar    1  UNL1        0.1671
     29 F          68.1254   91.5826    9.4174 F       1  UNL1       -0.2018
     30 C          67.3912   92.3681   11.7825 C.ar    1  UNL1        0.0277
@<TRIPOS>BOND
     1     7     8    1
     2     8     9   ar
     3     9    10   ar
     4    10    11   ar
     5    11    12   ar
     6    12    13   ar
     7    13    14   ar
     8    14    15   ar
     9    15    16   ar
    10    16    17   ar
    11    17    18   ar
    12    18    19   ar
    13    19     1    1
    14     1     2    1
    15     2     3    1
    16     3     4    1
    17     4    21    1
    18    21    22    1
    19    22    23    1
    20    23    24   ar
    21    24    25   ar
    22    25    26   ar
    23    26    27    1
    24    26    28   ar
    25    28    29    1
    26    28    30   ar
    27     4     5    1
    28     5     6    1
    29    19    20   ar
    30    20     8   ar
    31    14     9   ar
    32    20    15   ar
    33     6     1    1
    34    30    23   ar
@<TRIPOS>MOLECULE
*****
 30 34 0 0 0
SMALL
GASTEIGER

@<TRIPOS>ATOM
      1 N          63.3649   88.9483   12.5118 N.pl3   1  UNL1       -0.2892
      2 C          63.4267   90.3118   11.8897 C.3     1  UNL1        0.1095
      3 C          64.0589   91.4489   12.6364 C.3     1  UNL1        0.0939
      4 N          64.6294   91.2224   14.0050 N.3     1  UNL1       -0.2695
      5 C          64.5676   89.8589   14.6271 C.3     1  UNL1        0.0939
      6 C          63.9354   88.7219   13.8805 C.3     1  UNL1        0.1095
      7 C          64.4912   86.6087   14.3981 C.3     1  UNL1        0.1306
      8 N          63.7042   85.8277   13.3878 N.ar    1  UNL1       -0.3217
      9 C          63.5460   84.3364   13.3549 C.ar    1  UNL1        0.0646
     10 C          64.0777   83.2509   14.2430 C.ar    1  UNL1        0.0379
     11 C          63.7447   81.8168   13.9561 C.ar    1  UNL1        0.1004
     12 N          62.8799   81.4682   12.7810 N.ar    1  UNL1       -0.2422
     13 C          62.3482   82.5538   11.8929 C.ar    1  UNL1        0.1018
     14 C          62.6813   83.9879   12.1798 C.ar    1  UNL1        0.0542
     15 C          62.3050   85.2638   11.4866 C.ar    1  UNL1        0.1044
     16 N          61.4684   85.5371   10.2720 N.ar    1  UNL1       -0.2223
     17 C          61.2639   86.9475    9.8040 C.ar    1  UNL1        0.2001
     18 N          61.8961   88.0846   10.5506 N.ar    1  UNL1       -0.2075
     19 C          62.7327   87.8113   11.7652 C.ar    1  UNL1        0.1509
     20 C          62.9372   86.4009   12.2332 C.ar    1  UNL1        0.1100
     21 C          65.2616   92.3595   14.7516 C.3     1  UNL1        0.0769
     22 C          66.5388   92.9669   14.2518 C.3     1  UNL1        0.0437
     23 C          66.7121   93.2513   12.7893 C.ar    1  UNL1       -0.0184
     24 C          66.2706   94.5685   12.2239 C.ar    1  UNL1       -0.0018
     25 C          66.4440   94.8528   10.7613 C.ar    1  UNL1        0.0316
     26 C          67.0588   93.8199    9.8641 C.ar    1  UNL1        0.1674
     27 F          67.2322   94.1042    8.4016 F       1  UNL1       -0.2018
     28 C          67.5004   92.5025   10.4296 C.ar    1  UNL1        0.1671
     29 F          68.1153   91.4696    9.5325 F       1  UNL1       -0.2018
     30 C          67.3270   92.2183   11.8921 C.ar    1  UNL1        0.0277
@<TRIPOS>BOND
     1     7     8    1
     2     8     9   ar
     3     9    10   ar
     4    10    11   ar
     5    11    12   ar
     6    12    13   ar
     7    13    14   ar
     8    14    15   ar
     9    15    16   ar
    10    16    17   ar
    11    17    18   ar
    12    18    19   ar
    13    19     1    1
    14     1     2    1
    15     2     3    1
    16     3     4    1
    17     4    21    1
    18    21    22    1
    19    22    23    1
    20    23    24   ar
    21    24    25   ar
    22    25    26   ar
    23    26    27    1
    24    26    28   ar
    25    28    29    1
    26    28    30   ar
    27     4     5    1
    28     5     6    1
    29    19    20   ar
    30    20     8   ar
    31    14     9   ar
    32    20    15   ar
    33     6     1    1
    34    30    23   ar
@<TRIPOS>MOLECULE
*****
 30 34 0 0 0
SMALL
GASTEIGER

@<TRIPOS>ATOM
      1 N          63.8308   90.1166   12.9575 N.pl3   1  UNL1       -0.2892
      2 C          64.1732   88.7218   13.3900 C.3     1  UNL1        0.1095
      3 C          63.3977   87.5572   12.8490 C.3     1  UNL1        0.0939
      4 N          62.2799   87.7875   11.8757 N.3     1  UNL1       -0.2695
      5 C          61.9376   89.1825   11.4431 C.3     1  UNL1        0.0939
      6 C          62.7130   90.3469   11.9840 C.3     1  UNL1        0.1095
      7 C          64.1671   91.6552   10.1610 C.3     1  UNL1        0.1306
      8 N          64.8828   92.5797   11.1008 N.ar    1  UNL1       -0.3217
      9 C          65.5516   93.8699   10.7293 C.ar    1  UNL1        0.0646
     10 C          65.7029   94.5806    9.4171 C.ar    1  UNL1        0.0379
     11 C          66.4400   95.8853    9.3515 C.ar    1  UNL1        0.1004
     12 N          67.0258   96.4794   10.5981 N.ar    1  UNL1       -0.2422
     13 C          66.8745   95.7687   11.9103 C.ar    1  UNL1        0.1018
     14 C          66.1374   94.4640   11.9759 C.ar    1  UNL1        0.0542
     15 C          65.8306   93.5408   13.1177 C.ar    1  UNL1        0.1044
     16 N          66.1571   93.6102   14.5801 N.ar    1  UNL1       -0.2223
     17 C          65.7082   92.5151   15.5016 C.ar    1  UNL1        0.2001
     18 N          64.9328   91.3505   14.9607 N.ar    1  UNL1       -0.2075
     19 C          64.6062   91.2811   13.4984 C.ar    1  UNL1        0.1509
     20 C          65.0551   92.3763   12.5769 C.ar    1  UNL1        0.1100
     21 C          61.5045   86.6230   11.3348 C.3     1  UNL1        0.0769
     22 C          62.2123   85.5344   10.5837 C.3     1  UNL1        0.0437
     23 C          62.7556   84.3460   11.3203 C.ar    1  UNL1       -0.0184
     24 C          63.6421   83.3654   10.6115 C.ar    1  UNL1       -0.0018
     25 C          64.1853   82.1769   11.3482 C.ar    1  UNL1        0.0316
     26 C          63.8421   81.9692   12.7935 C.ar    1  UNL1        0.1674
     27 F          64.3853   80.7808   13.5300 F       1  UNL1       -0.2018
     28 C          62.9556   82.9499   13.5023 C.ar    1  UNL1        0.1671
     29 F          62.6123   82.7421   14.9476 F       1  UNL1       -0.2018
     30 C          62.4124   84.1382   12.7657 C.ar    1  UNL1        0.0277
@<TRIPOS>BOND
     1     7     8    1
     2     8     9   ar
     3     9    10   ar
     4    10    11   ar
     5    11    12   ar
     6    12    13   ar
     7    13    14   ar
     8    14    15   ar
     9    15    16   ar
    10    16    17   ar
    11    17    18   ar
    12    18    19   ar
    13    19     1    1
    14     1     2    1
    15     2     3    1
    16     3     4    1
    17     4    21    1
    18    21    22    1
    19    22    23    1
    20    23    24   ar
    21    24    25   ar
    22    25    26   ar
    23    26    27    1
    24    26    28   ar
    25    28    29    1
    26    28    30   ar
    27     4     5    1
    28     5     6    1
    29    19    20   ar
    30    20     8   ar
    31    14     9   ar
    32    20    15   ar
    33     6     1    1
    34    30    23   ar
@<TRIPOS>MOLECULE
*****
 30 34 0 0 0
SMALL
GASTEIGER

@<TRIPOS>ATOM
      1 N          63.5163   91.2628   11.3437 N.pl3   1  UNL1       -0.2892
      2 C          63.2048   90.6699   10.0016 C.3     1  UNL1        0.1095
      3 C          62.1294   89.6322    9.8715 C.3     1  UNL1        0.0939
      4 N          61.3656   89.1876   11.0834 N.3     1  UNL1       -0.2695
      5 C          61.6771   89.7806   12.4256 C.3     1  UNL1        0.0939
      6 C          62.7524   90.8181   12.5557 C.3     1  UNL1        0.1095
      7 C          64.7073   90.1995   14.1279 C.3     1  UNL1        0.1306
      8 N          65.5944   91.3771   13.8516 N.ar    1  UNL1       -0.3217
      9 C          66.7223   91.8537   14.7180 C.ar    1  UNL1        0.0646
     10 C          67.2710   91.3484   16.0193 C.ar    1  UNL1        0.0379
     11 C          68.4318   92.0452   16.6649 C.ar    1  UNL1        0.1004
     12 N          69.0439   93.2475   16.0092 N.ar    1  UNL1       -0.2422
     13 C          68.4951   93.7529   14.7079 C.ar    1  UNL1        0.1018
     14 C          67.3343   93.0560   14.0623 C.ar    1  UNL1        0.0542
     15 C          66.5847   93.3223   12.7906 C.ar    1  UNL1        0.1044
     16 N          66.7423   94.3757   11.7344 N.ar    1  UNL1       -0.2223
     17 C          65.8247   94.3914   10.5480 C.ar    1  UNL1        0.2001
     18 N          64.7493   93.3538   10.4177 N.ar    1  UNL1       -0.2075
     19 C          64.5916   92.3004   11.4740 C.ar    1  UNL1        0.1509
     20 C          65.5093   92.2847   12.6604 C.ar    1  UNL1        0.1100
     21 C          60.2902   88.1500   10.9531 C.3     1  UNL1        0.0769
     22 C          60.3692   87.1204    9.8651 C.3     1  UNL1        0.0437
     23 C          61.4589   86.0898    9.8855 C.ar    1  UNL1       -0.0184
     24 C          62.1868   85.7428    8.6208 C.ar    1  UNL1       -0.0018
     25 C          63.2765   84.7121    8.6412 C.ar    1  UNL1        0.0316
     26 C          63.6382   84.0285    9.9264 C.ar    1  UNL1        0.1674
     27 F          64.7278   82.9978    9.9468 F       1  UNL1       -0.2018
     28 C          62.9102   84.3754   11.1912 C.ar    1  UNL1        0.1671
     29 F          63.2719   83.6917   12.4764 F       1  UNL1       -0.2018
     30 C          61.8206   85.4060   11.1708 C.ar    1  UNL1        0.0277
@<TRIPOS>BOND
     1     7     8    1
     2     8     9   ar
     3     9    10   ar
     4    10    11   ar
     5    11    12   ar
     6    12    13   ar
     7    13    14   ar
     8    14    15   ar
     9    15    16   ar
    10    16    17   ar
    11    17    18   ar
    12    18    19   ar
    13    19     1    1
    14     1     2    1
    15     2     3    1
    16     3     4    1
    17     4    21    1
    18    21    22    1
    19    22    23    1
    20    23    24   ar
    21    24    25   ar
    22    25    26   ar
    23    26    27    1
    24    26    28   ar
    25    28    29    1
    26    28    30   ar
    27     4     5    1
    28     5     6    1
    29    19    20   ar
    30    20     8   ar
    31    14     9   ar
    32    20    15   ar
    33     6     1    1
    34    30    23   ar
@<TRIPOS>MOLECULE
*****
 30 34 0 0 0
SMALL
GASTEIGER

@<TRIPOS>ATOM
      1 N          62.0491   88.8269   11.3952 N.pl3   1  UNL1       -0.2892
      2 C          62.3282   87.7785   10.3596 C.3     1  UNL1        0.1095
      3 C          61.3294   87.5138    9.2721 C.3     1  UNL1        0.0939
      4 N          60.0516   88.2976    9.2204 N.3     1  UNL1       -0.2695
      5 C          59.7724   89.3461   10.2562 C.3     1  UNL1        0.0939
      6 C          60.7711   89.6107   11.3435 C.3     1  UNL1        0.1095
      7 C          63.1406   91.6040   10.2132 C.3     1  UNL1        0.1306
      8 N          63.9666   91.4613   11.4572 N.ar    1  UNL1       -0.3217
      9 C          65.0101   92.4257   11.9380 C.ar    1  UNL1        0.0646
     10 C          65.5130   93.7226   11.3768 C.ar    1  UNL1        0.0379
     11 C          66.5883   94.4835   12.0941 C.ar    1  UNL1        0.1004
     12 N          67.1608   93.9475   13.3728 N.ar    1  UNL1       -0.2422
     13 C          66.6579   92.6505   13.9341 C.ar    1  UNL1        0.1018
     14 C          65.5826   91.8896   13.2167 C.ar    1  UNL1        0.0542
     15 C          64.8929   90.5940   13.5260 C.ar    1  UNL1        0.1044
     16 N          65.0452   89.6211   14.6575 N.ar    1  UNL1       -0.2223
     17 C          64.1989   88.3834   14.7015 C.ar    1  UNL1        0.2001
     18 N          63.2002   88.1187   13.6141 N.ar    1  UNL1       -0.2075
     19 C          63.0478   89.0916   12.4826 C.ar    1  UNL1        0.1509
     20 C          63.8942   90.3293   12.4386 C.ar    1  UNL1        0.1100
     21 C          59.0529   88.0328    8.1330 C.3     1  UNL1        0.0769
     22 C          59.4615   88.1504    6.6945 C.3     1  UNL1        0.0437
     23 C          59.4141   89.4831    6.0079 C.ar    1  UNL1       -0.0184
     24 C          60.6790   90.1127    5.5043 C.ar    1  UNL1       -0.0018
     25 C          60.6316   91.4455    4.8176 C.ar    1  UNL1        0.0316
     26 C          59.3193   92.1486    4.6345 C.ar    1  UNL1        0.1674
     27 F          59.2720   93.4814    3.9479 F       1  UNL1       -0.2018
     28 C          58.0544   91.5190    5.1381 C.ar    1  UNL1        0.1671
     29 F          56.7421   92.2222    4.9551 F       1  UNL1       -0.2018
     30 C          58.1018   90.1863    5.8248 C.ar    1  UNL1        0.0277
@<TRIPOS>BOND
     1     7     8    1
     2     8     9   ar
     3     9    10   ar
     4    10    11   ar
     5    11    12   ar
     6    12    13   ar
     7    13    14   ar
     8    14    15   ar
     9    15    16   ar
    10    16    17   ar
    11    17    18   ar
    12    18    19   ar
    13    19     1    1
    14     1     2    1
    15     2     3    1
    16     3     4    1
    17     4    21    1
    18    21    22    1
    19    22    23    1
    20    23    24   ar
    21    24    25   ar
    22    25    26   ar
    23    26    27    1
    24    26    28   ar
    25    28    29    1
    26    28    30   ar
    27     4     5    1
    28     5     6    1
    29    19    20   ar
    30    20     8   ar
    31    14     9   ar
    32    20    15   ar
    33     6     1    1
    34    30    23   ar
@<TRIPOS>MOLECULE
*****
 30 34 0 0 0
SMALL
GASTEIGER

@<TRIPOS>ATOM
      1 N          63.2400   88.1290   12.9331 N.pl3   1  UNL1       -0.2892
      2 C          62.7077   89.5255   12.8055 C.3     1  UNL1        0.1095
      3 C          62.9937   90.5377   13.8750 C.3     1  UNL1        0.0939
      4 N          63.8118   90.1533   15.0720 N.3     1  UNL1       -0.2695
      5 C          64.3441   88.7568   15.1996 C.3     1  UNL1        0.0939
      6 C          64.0582   87.7446   14.1301 C.3     1  UNL1        0.1095
      7 C          63.7509   85.5325   14.7491 C.3     1  UNL1        0.1306
      8 N          63.3948   84.9120   13.4307 N.ar    1  UNL1       -0.3217
      9 C          63.3237   83.4424   13.1385 C.ar    1  UNL1        0.0646
     10 C          63.5650   82.2358   13.9962 C.ar    1  UNL1        0.0379
     11 C          63.4147   80.8609   13.4156 C.ar    1  UNL1        0.1004
     12 N          63.0231   80.6927   11.9774 N.ar    1  UNL1       -0.2422
     13 C          62.7819   81.8994   11.1198 C.ar    1  UNL1        0.1018
     14 C          62.9322   83.2742   11.7003 C.ar    1  UNL1        0.0542
     15 C          62.7613   84.6398   11.1037 C.ar    1  UNL1        0.1044
     16 N          62.3823   85.0924    9.7247 N.ar    1  UNL1       -0.2223
     17 C          62.2891   86.5572    9.4152 C.ar    1  UNL1        0.2001
     18 N          62.5750   87.5694   10.4847 N.ar    1  UNL1       -0.2075
     19 C          62.9541   87.1168   11.8636 C.ar    1  UNL1        0.1509
     20 C          63.0472   85.6520   12.1731 C.ar    1  UNL1        0.1100
     21 C          64.0977   91.1655   16.1414 C.3     1  UNL1        0.0769
     22 C          64.8233   92.4331   15.7997 C.3     1  UNL1        0.0437
     23 C          66.2455   92.3789   15.3259 C.ar    1  UNL1       -0.0184
     24 C          67.3625   92.7261   16.2648 C.ar    1  UNL1       -0.0018
     25 C          68.7847   92.6718   15.7909 C.ar    1  UNL1        0.0316
     26 C          69.0898   92.2703   14.3782 C.ar    1  UNL1        0.1674
     27 F          70.5120   92.2160   13.9044 F       1  UNL1       -0.2018
     28 C          67.9727   91.9230   13.4393 C.ar    1  UNL1        0.1671
     29 F          68.2777   91.5214   12.0267 F       1  UNL1       -0.2018
     30 C          66.5506   91.9773   13.9132 C.ar    1  UNL1        0.0277
@<TRIPOS>BOND
     1     7     8    1
     2     8     9   ar
     3     9    10   ar
     4    10    11   ar
     5    11    12   ar
     6    12    13   ar
     7    13    14   ar
     8    14    15   ar
     9    15    16   ar
    10    16    17   ar
    11    17    18   ar
    12    18    19   ar
    13    19     1    1
    14     1     2    1
    15     2     3    1
    16     3     4    1
    17     4    21    1
    18    21    22    1
    19    22    23    1
    20    23    24   ar
    21    24    25   ar
    22    25    26   ar
    23    26    27    1
    24    26    28   ar
    25    28    29    1
    26    28    30   ar
    27     4     5    1
    28     5     6    1
    29    19    20   ar
    30    20     8   ar
    31    14     9   ar
    32    20    15   ar
    33     6     1    1
    34    30    23   ar
@<TRIPOS>MOLECULE
*****
 30 34 0 0 0
SMALL
GASTEIGER

@<TRIPOS>ATOM
      1 N          63.6838   88.8461   14.7195 N.pl3   1  UNL1       -0.2892
      2 C          65.0379   89.4711   14.8791 C.3     1  UNL1        0.1095
      3 C          65.3993   90.6911   14.0847 C.3     1  UNL1        0.0939
      4 N          64.4064   91.2862   13.1307 N.3     1  UNL1       -0.2695
      5 C          63.0522   90.6612   12.9711 C.3     1  UNL1        0.0939
      6 C          62.6909   89.4412   13.7654 C.3     1  UNL1        0.1095
      7 C          63.5575   86.8216   12.2323 C.3     1  UNL1        0.1306
      8 N          63.2196   85.9130   13.3770 N.ar    1  UNL1       -0.3217
      9 C          62.9163   84.4472   13.2793 C.ar    1  UNL1        0.0646
     10 C          62.8600   83.5097   12.1099 C.ar    1  UNL1        0.0379
     11 C          62.5223   82.0639   12.3233 C.ar    1  UNL1        0.1004
     12 N          62.2409   81.5557   13.7062 N.ar    1  UNL1       -0.2422
     13 C          62.2972   82.4932   14.8757 C.ar    1  UNL1        0.1018
     14 C          62.6349   83.9390   14.6623 C.ar    1  UNL1        0.0542
     15 C          62.7642   85.0907   15.6146 C.ar    1  UNL1        0.1044
     16 N          62.5996   85.1861   17.1025 N.ar    1  UNL1       -0.2223
     17 C          62.7964   86.5015   17.7960 C.ar    1  UNL1        0.2001
     18 N          63.1578   87.7215   17.0017 N.ar    1  UNL1       -0.2075
     19 C          63.3224   87.6261   15.5138 C.ar    1  UNL1        0.1509
     20 C          63.1256   86.3107   14.8203 C.ar    1  UNL1        0.1100
     21 C          64.7678   92.5062   12.3364 C.3     1  UNL1        0.0769
     22 C          66.2087   92.8752   12.1424 C.3     1  UNL1        0.0437
     23 C          66.5951   93.8524   11.0720 C.ar    1  UNL1       -0.0184
     24 C          66.3474   95.3184   11.2699 C.ar    1  UNL1       -0.0018
     25 C          66.7338   96.2956   10.1994 C.ar    1  UNL1        0.0316
     26 C          67.3680   95.8067    8.9310 C.ar    1  UNL1        0.1674
     27 F          67.7544   96.7838    7.8606 F       1  UNL1       -0.2018
     28 C          67.6157   94.3405    8.7331 C.ar    1  UNL1        0.1671
     29 F          68.2498   93.8516    7.4647 F       1  UNL1       -0.2018
     30 C          67.2293   93.3635    9.8035 C.ar    1  UNL1        0.0277
@<TRIPOS>BOND
     1     7     8    1
     2     8     9   ar
     3     9    10   ar
     4    10    11   ar
     5    11    12   ar
     6    12    13   ar
     7    13    14   ar
     8    14    15   ar
     9    15    16   ar
    10    16    17   ar
    11    17    18   ar
    12    18    19   ar
    13    19     1    1
    14     1     2    1
    15     2     3    1
    16     3     4    1
    17     4    21    1
    18    21    22    1
    19    22    23    1
    20    23    24   ar
    21    24    25   ar
    22    25    26   ar
    23    26    27    1
    24    26    28   ar
    25    28    29    1
    26    28    30   ar
    27     4     5    1
    28     5     6    1
    29    19    20   ar
    30    20     8   ar
    31    14     9   ar
    32    20    15   ar
    33     6     1    1
    34    30    23   ar
@<TRIPOS>MOLECULE
*****
 30 34 0 0 0
SMALL
GASTEIGER

@<TRIPOS>ATOM
      1 N          57.8213   94.6068   -2.4407 N.pl3   1  UNL1       -0.2892
      2 C          57.9495   93.1422   -2.1436 C.3     1  UNL1        0.1095
      3 C          58.6079   92.6893   -0.8741 C.3     1  UNL1        0.0939
      4 N          59.1381   93.7010    0.0981 N.3     1  UNL1       -0.2695
      5 C          59.0100   95.1657   -0.1991 C.3     1  UNL1        0.0939
      6 C          58.3516   95.6185   -1.4684 C.3     1  UNL1        0.1095
      7 C          54.8818   94.9811   -1.2079 C.3     1  UNL1        0.1306
      8 N          54.6600   95.3733   -2.6387 N.ar    1  UNL1       -0.3217
      9 C          53.3584   95.8132   -3.2406 C.ar    1  UNL1        0.0646
     10 C          51.9885   95.9848   -2.6542 C.ar    1  UNL1        0.0379
     11 C          50.8550   96.4494   -3.5197 C.ar    1  UNL1        0.1004
     12 N          51.0914   96.7424   -4.9717 N.ar    1  UNL1       -0.2422
     13 C          52.4612   96.5708   -5.5582 C.ar    1  UNL1        0.1018
     14 C          53.5947   96.1062   -4.6926 C.ar    1  UNL1        0.0542
     15 C          55.0424   95.8474   -4.9880 C.ar    1  UNL1        0.1044
     16 N          55.8462   95.9657   -6.2489 N.ar    1  UNL1       -0.2223
     17 C          57.3084   95.6310   -6.2404 C.ar    1  UNL1        0.2001
     18 N          57.9668   95.1780   -4.9710 N.ar    1  UNL1       -0.2075
     19 C          57.1630   95.0597   -3.7101 C.ar    1  UNL1        0.1509
     20 C          55.7008   95.3944   -3.7186 C.ar    1  UNL1        0.1100
     21 C          59.7965   93.2480    1.3675 C.3     1  UNL1        0.0769
     22 C          61.1448   92.5924    1.3205 C.3     1  UNL1        0.0437
     23 C          62.3455   93.3771    0.8814 C.ar    1  UNL1       -0.0184
     24 C          62.6281   93.5602   -0.5802 C.ar    1  UNL1       -0.0018
     25 C          63.8288   94.3450   -1.0193 C.ar    1  UNL1        0.0316
     26 C          64.7467   94.9464    0.0033 C.ar    1  UNL1        0.1674
     27 F          65.9473   95.7311   -0.4359 F       1  UNL1       -0.2018
     28 C          64.4640   94.7632    1.4650 C.ar    1  UNL1        0.1671
     29 F          65.3819   95.3647    2.4875 F       1  UNL1       -0.2018
     30 C          63.2634   93.9786    1.9040 C.ar    1  UNL1        0.0277
@<TRIPOS>BOND
     1     7     8    1
     2     8     9   ar
     3     9    10   ar
     4    10    11   ar
     5    11    12   ar
     6    12    13   ar
     7    13    14   ar
     8    14    15   ar
     9    15    16   ar
    10    16    17   ar
    11    17    18   ar
    12    18    19   ar
    13    19     1    1
    14     1     2    1
    15     2     3    1
    16     3     4    1
    17     4    21    1
    18    21    22    1
    19    22    23    1
    20    23    24   ar
    21    24    25   ar
    22    25    26   ar
    23    26    27    1
    24    26    28   ar
    25    28    29    1
    26    28    30   ar
    27     4     5    1
    28     5     6    1
    29    19    20   ar
    30    20     8   ar
    31    14     9   ar
    32    20    15   ar
    33     6     1    1
    34    30    23   ar
@<TRIPOS>MOLECULE
*****
 30 34 0 0 0
SMALL
GASTEIGER

@<TRIPOS>ATOM
      1 N          64.1206   90.6631   13.0350 N.pl3   1  UNL1       -0.2892
      2 C          64.5092   89.2818   13.4718 C.3     1  UNL1        0.1095
      3 C          63.6710   88.1045   13.0701 C.3     1  UNL1        0.0939
      4 N          62.4442   88.3085   12.2315 N.3     1  UNL1       -0.2695
      5 C          62.0555   89.6899   11.7946 C.3     1  UNL1        0.0939
      6 C          62.8937   90.8671   12.1963 C.3     1  UNL1        0.1095
      7 C          64.1877   92.0597   10.1461 C.3     1  UNL1        0.1306
      8 N          65.0043   93.0175   10.9621 N.ar    1  UNL1       -0.3217
      9 C          65.6454   94.2780   10.4618 C.ar    1  UNL1        0.0646
     10 C          65.6703   94.9221    9.1074 C.ar    1  UNL1        0.0379
     11 C          66.4103   96.2108    8.9034 C.ar    1  UNL1        0.1004
     12 N          67.1255   96.8552   10.0537 N.ar    1  UNL1       -0.2422
     13 C          67.1006   96.2110   11.4081 C.ar    1  UNL1        0.1018
     14 C          66.3605   94.9224   11.6121 C.ar    1  UNL1        0.0542
     15 C          66.1614   94.0602   12.8233 C.ar    1  UNL1        0.1044
     16 N          66.6351   94.1950   14.2401 N.ar    1  UNL1       -0.2223
     17 C          66.2706   93.1526   15.2552 C.ar    1  UNL1        0.2001
     18 N          65.4325   91.9752   14.8535 N.ar    1  UNL1       -0.2075
     19 C          64.9588   91.8404   13.4367 C.ar    1  UNL1        0.1509
     20 C          65.3233   92.8829   12.4216 C.ar    1  UNL1        0.1100
     21 C          61.6060   87.1312   11.8297 C.3     1  UNL1        0.0769
     22 C          62.2536   85.9210   11.2247 C.3     1  UNL1        0.0437
     23 C          62.0663   85.6199    9.7672 C.ar    1  UNL1       -0.0184
     24 C          63.1310   84.8819    9.0111 C.ar    1  UNL1       -0.0018
     25 C          62.9437   84.5808    7.5535 C.ar    1  UNL1        0.0316
     26 C          61.6917   85.0176    6.8523 C.ar    1  UNL1        0.1674
     27 F          61.5045   84.7164    5.3948 F       1  UNL1       -0.2018
     28 C          60.6270   85.7555    7.6085 C.ar    1  UNL1        0.1671
     29 F          59.3751   86.1923    6.9072 F       1  UNL1       -0.2018
     30 C          60.8143   86.0567    9.0659 C.ar    1  UNL1        0.0277
@<TRIPOS>BOND
     1     7     8    1
     2     8     9   ar
     3     9    10   ar
     4    10    11   ar
     5    11    12   ar
     6    12    13   ar
     7    13    14   ar
     8    14    15   ar
     9    15    16   ar
    10    16    17   ar
    11    17    18   ar
    12    18    19   ar
    13    19     1    1
    14     1     2    1
    15     2     3    1
    16     3     4    1
    17     4    21    1
    18    21    22    1
    19    22    23    1
    20    23    24   ar
    21    24    25   ar
    22    25    26   ar
    23    26    27    1
    24    26    28   ar
    25    28    29    1
    26    28    30   ar
    27     4     5    1
    28     5     6    1
    29    19    20   ar
    30    20     8   ar
    31    14     9   ar
    32    20    15   ar
    33     6     1    1
    34    30    23   ar
