@<TRIPOS>MOLECULE
*****
 28 30 0 0 0
SMALL
GASTEIGER

@<TRIPOS>ATOM
      1 C          62.9158   89.1011   12.1271 C.2     1  UNL1        0.0731
      2 C          63.6758   89.5388   13.3440 C.2     1  UNL1        0.0529
      3 N          64.2113   88.5162   14.3018 N.pl3   1  UNL1       -0.3173
      4 C          63.9868   87.0559   14.0428 C.2     1  UNL1        0.0317
      5 C          64.5224   86.0333   15.0007 C.3     1  UNL1        0.0475
      6 C          63.2268   86.6182   12.8260 C.2     1  UNL1        0.0635
      7 C          62.6913   87.6408   11.8682 C.3     1  UNL1        0.0855
      8 H          64.7102   88.8035   15.1005 H       1  UNL1        0.1517
      9 C          61.9312   87.2031   10.6513 C.ar    1  UNL1       -0.0026
     10 C          62.6529   86.5453    9.5126 C.ar    1  UNL1       -0.0005
     11 C          61.8929   86.1076    8.2958 C.ar    1  UNL1        0.0294
     12 C          60.4111   86.3276    8.2176 C.ar    1  UNL1        0.1410
     13 F          59.6511   85.8898    7.0007 F       1  UNL1       -0.2041
     14 C          59.6894   86.9853    9.3562 C.ar    1  UNL1        0.0407
     15 C          60.4495   87.4230   10.5731 C.ar    1  UNL1        0.0566
     16 CL         59.7278   88.0808   11.7118 Cl      1  UNL1       -0.0825
     17 C          62.3802   90.1237   11.1693 C.2     1  UNL1        0.3389
     18 O          61.0081   90.6948   11.3716 O.2     1  UNL1       -0.2452
     19 C          63.8845   91.9180   10.0434 C.3     1  UNL1        0.2559
     20 O          63.2168   90.5752   10.0091 O.3     1  UNL1       -0.4415
     21 C          63.0022   85.1579   12.5670 C.1     1  UNL1        0.0976
     22 N          62.7777   83.6976   12.3080 N.1     1  UNL1       -0.1911
     23 C          63.9004   90.9991   13.6030 C.3     1  UNL1        0.1699
     24 N          65.2970   91.5387   13.6937 N.ar    1  UNL1       -0.2242
     25 C          65.8532   92.6835   12.8999 C.ar    1  UNL1        0.1976
     26 N          67.2826   92.8805   13.3097 N.ar    1  UNL1       -0.2007
     27 C          67.6099   91.8575   14.3568 C.ar    1  UNL1        0.2210
     28 N          66.3827   91.0282   14.5941 N.ar    1  UNL1       -0.1448
@<TRIPOS>BOND
     1    19    20    1
     2    20    17    1
     3    17    18    2
     4    17     1    1
     5     1     2    2
     6     2    23    1
     7    23    24    1
     8    24    25   ar
     9    25    26   ar
    10    26    27   ar
    11    27    28   ar
    12     2     3    1
    13     3     4    1
    14     4     5    1
    15     4     6    2
    16     6    21    1
    17    21    22    3
    18     6     7    1
    19     7     9    1
    20     9    10   ar
    21    10    11   ar
    22    11    12   ar
    23    12    13    1
    24    12    14   ar
    25    14    15   ar
    26    15    16    1
    27     7     1    1
    28    15     9   ar
    29    28    24   ar
    30     3     8    1
@<TRIPOS>MOLECULE
*****
 28 30 0 0 0
SMALL
GASTEIGER

@<TRIPOS>ATOM
      1 C          65.1171   91.4434   13.6088 C.2     1  UNL1        0.0731
      2 C          65.3074   92.4669   12.5290 C.2     1  UNL1        0.0529
      3 N          64.5439   92.3515   11.2431 N.pl3   1  UNL1       -0.3173
      4 C          63.5900   91.2124   11.0369 C.2     1  UNL1        0.0317
      5 C          62.8264   91.0970    9.7510 C.3     1  UNL1        0.0475
      6 C          63.3996   90.1888   12.1167 C.2     1  UNL1        0.0635
      7 C          64.1631   90.3043   13.4027 C.3     1  UNL1        0.0855
      8 H          64.6689   93.0233   10.5344 H       1  UNL1        0.1517
      9 C          63.9727   89.2807   14.4825 C.ar    1  UNL1       -0.0026
     10 C          64.4530   87.8747   14.2762 C.ar    1  UNL1       -0.0005
     11 C          64.2626   86.8510   15.3559 C.ar    1  UNL1        0.0294
     12 C          63.5919   87.2334   16.6420 C.ar    1  UNL1        0.1410
     13 F          63.4015   86.2097   17.7218 F       1  UNL1       -0.2041
     14 C          63.1116   88.6393   16.8484 C.ar    1  UNL1        0.0407
     15 C          63.3020   89.6630   15.7685 C.ar    1  UNL1        0.0566
     16 CL         62.8218   91.0690   15.9749 Cl      1  UNL1       -0.0825
     17 C          65.8806   91.5588   14.8948 C.2     1  UNL1        0.3389
     18 O          65.2551   92.2314   16.0806 O.2     1  UNL1       -0.2452
     19 C          68.4089   91.8938   15.3900 C.3     1  UNL1        0.2559
     20 O          67.2697   91.0017   14.9949 O.3     1  UNL1       -0.4415
     21 C          62.4456   89.0497   11.9106 C.1     1  UNL1        0.0976
     22 N          61.4917   87.9107   11.7044 N.1     1  UNL1       -0.1911
     23 C          66.2614   93.6061   12.7352 C.3     1  UNL1        0.1699
     24 N          66.5692   94.5408   11.6031 N.ar    1  UNL1       -0.2242
     25 C          66.1975   95.9923   11.5324 C.ar    1  UNL1        0.1976
     26 N          66.7013   96.5368   10.2287 N.ar    1  UNL1       -0.2007
     27 C          67.3842   95.4217    9.4936 C.ar    1  UNL1        0.2210
     28 N          67.3026   94.1882   10.3431 N.ar    1  UNL1       -0.1448
@<TRIPOS>BOND
     1    19    20    1
     2    20    17    1
     3    17    18    2
     4    17     1    1
     5     1     2    2
     6     2    23    1
     7    23    24    1
     8    24    25   ar
     9    25    26   ar
    10    26    27   ar
    11    27    28   ar
    12     2     3    1
    13     3     4    1
    14     4     5    1
    15     4     6    2
    16     6    21    1
    17    21    22    3
    18     6     7    1
    19     7     9    1
    20     9    10   ar
    21    10    11   ar
    22    11    12   ar
    23    12    13    1
    24    12    14   ar
    25    14    15   ar
    26    15    16    1
    27     7     1    1
    28    15     9   ar
    29    28    24   ar
    30     3     8    1
@<TRIPOS>MOLECULE
*****
 28 30 0 0 0
SMALL
GASTEIGER

@<TRIPOS>ATOM
      1 C          63.7426   85.9757   13.5209 C.2     1  UNL1        0.0731
      2 C          63.8363   87.4609   13.7092 C.2     1  UNL1        0.0529
      3 N          63.2329   88.3852   12.6937 N.pl3   1  UNL1       -0.3173
      4 C          62.5356   87.8244   11.4898 C.2     1  UNL1        0.0317
      5 C          61.9322   88.7488   10.4742 C.3     1  UNL1        0.0475
      6 C          62.4419   86.3393   11.3015 C.2     1  UNL1        0.0635
      7 C          63.0454   85.4149   12.3171 C.3     1  UNL1        0.0855
      8 H          63.2944   89.3600   12.8173 H       1  UNL1        0.1517
      9 C          62.9516   83.9297   12.1287 C.ar    1  UNL1       -0.0026
     10 C          62.1756   83.0973   13.1059 C.ar    1  UNL1       -0.0005
     11 C          62.0818   81.6122   12.9176 C.ar    1  UNL1        0.0294
     12 C          62.7640   80.9593   11.7521 C.ar    1  UNL1        0.1410
     13 F          62.6702   79.4742   11.5638 F       1  UNL1       -0.2041
     14 C          63.5400   81.7917   10.7748 C.ar    1  UNL1        0.0407
     15 C          63.6338   83.2770   10.9632 C.ar    1  UNL1        0.0566
     16 CL         64.4098   84.1093    9.9860 Cl      1  UNL1       -0.0825
     17 C          64.3461   85.0514   14.5365 C.2     1  UNL1        0.3389
     18 O          65.5282   84.2037   14.1703 O.2     1  UNL1       -0.2452
     19 C          62.2801   84.9274   16.1070 C.3     1  UNL1        0.2559
     20 O          63.7675   84.9746   15.9182 O.3     1  UNL1       -0.4415
     21 C          61.7446   85.7784   10.0976 C.1     1  UNL1        0.0976
     22 N          61.0474   85.2176    8.8937 N.1     1  UNL1       -0.1911
     23 C          64.5336   88.0217   14.9132 C.3     1  UNL1        0.1699
     24 N          64.3528   89.4649   15.2800 N.ar    1  UNL1       -0.2242
     25 C          63.4001   90.0008   16.3071 C.ar    1  UNL1        0.1976
     26 N          63.5515   91.4927   16.3460 N.ar    1  UNL1       -0.2007
     27 C          64.5979   91.8787   15.3430 C.ar    1  UNL1        0.2210
     28 N          65.0931   90.6255   14.6841 N.ar    1  UNL1       -0.1448
@<TRIPOS>BOND
     1    19    20    1
     2    20    17    1
     3    17    18    2
     4    17     1    1
     5     1     2    2
     6     2    23    1
     7    23    24    1
     8    24    25   ar
     9    25    26   ar
    10    26    27   ar
    11    27    28   ar
    12     2     3    1
    13     3     4    1
    14     4     5    1
    15     4     6    2
    16     6    21    1
    17    21    22    3
    18     6     7    1
    19     7     9    1
    20     9    10   ar
    21    10    11   ar
    22    11    12   ar
    23    12    13    1
    24    12    14   ar
    25    14    15   ar
    26    15    16    1
    27     7     1    1
    28    15     9   ar
    29    28    24   ar
    30     3     8    1
@<TRIPOS>MOLECULE
*****
 28 30 0 0 0
SMALL
GASTEIGER

@<TRIPOS>ATOM
      1 C          63.9786   86.9648   13.9323 C.2     1  UNL1        0.0731
      2 C          63.9627   88.4600   13.8133 C.2     1  UNL1        0.0529
      3 N          63.2888   89.1121   12.6426 N.pl3   1  UNL1       -0.3173
      4 C          62.6308   88.2691   11.5908 C.2     1  UNL1        0.0317
      5 C          61.9569   88.9212   10.4201 C.3     1  UNL1        0.0475
      6 C          62.6468   86.7739   11.7098 C.2     1  UNL1        0.0635
      7 C          63.3207   86.1218   12.8805 C.3     1  UNL1        0.0855
      8 H          63.2784   90.0935   12.5645 H       1  UNL1        0.1517
      9 C          63.3366   84.6265   12.9994 C.ar    1  UNL1       -0.0026
     10 C          64.2601   83.8156   12.1395 C.ar    1  UNL1       -0.0005
     11 C          64.2760   82.3204   12.2584 C.ar    1  UNL1        0.0294
     12 C          63.3684   81.6361   13.2372 C.ar    1  UNL1        0.1410
     13 F          63.3843   80.1410   13.3561 F       1  UNL1       -0.2041
     14 C          62.4449   82.4471   14.0972 C.ar    1  UNL1        0.0407
     15 C          62.4290   83.9423   13.9782 C.ar    1  UNL1        0.0566
     16 CL         61.5055   84.7533   14.8382 Cl      1  UNL1       -0.0825
     17 C          64.6525   86.3127   15.1030 C.2     1  UNL1        0.3389
     18 O          66.1090   85.9616   15.0300 O.2     1  UNL1       -0.2452
     19 C          63.0768   87.0957   17.0145 C.3     1  UNL1        0.2559
     20 O          63.8700   86.0118   16.3468 O.3     1  UNL1       -0.4415
     21 C          61.9887   85.9308   10.6580 C.1     1  UNL1        0.0976
     22 N          61.3308   85.0877    9.6062 N.1     1  UNL1       -0.1911
     23 C          64.6207   89.3031   14.8651 C.3     1  UNL1        0.1699
     24 N          65.1026   90.6828   14.5273 N.ar    1  UNL1       -0.2242
     25 C          65.4353   91.7658   15.5104 C.ar    1  UNL1        0.1976
     26 N          65.8747   92.9741   14.7378 N.ar    1  UNL1       -0.2007
     27 C          65.8136   92.6379   13.2771 C.ar    1  UNL1        0.2210
     28 N          65.3364   91.2218   13.1471 N.ar    1  UNL1       -0.1448
@<TRIPOS>BOND
     1    19    20    1
     2    20    17    1
     3    17    18    2
     4    17     1    1
     5     1     2    2
     6     2    23    1
     7    23    24    1
     8    24    25   ar
     9    25    26   ar
    10    26    27   ar
    11    27    28   ar
    12     2     3    1
    13     3     4    1
    14     4     5    1
    15     4     6    2
    16     6    21    1
    17    21    22    3
    18     6     7    1
    19     7     9    1
    20     9    10   ar
    21    10    11   ar
    22    11    12   ar
    23    12    13    1
    24    12    14   ar
    25    14    15   ar
    26    15    16    1
    27     7     1    1
    28    15     9   ar
    29    28    24   ar
    30     3     8    1
@<TRIPOS>MOLECULE
*****
 28 30 0 0 0
SMALL
GASTEIGER

@<TRIPOS>ATOM
      1 C          62.7656   85.5945   11.5715 C.2     1  UNL1        0.0731
      2 C          62.8452   85.2206   10.1211 C.2     1  UNL1        0.0529
      3 N          63.1493   83.8057    9.7269 N.pl3   1  UNL1       -0.3173
      4 C          63.3737   82.7646   10.7831 C.2     1  UNL1        0.0317
      5 C          63.6778   81.3496   10.3889 C.3     1  UNL1        0.0475
      6 C          63.2941   83.1384   12.2335 C.2     1  UNL1        0.0635
      7 C          62.9900   84.5534   12.6278 C.3     1  UNL1        0.0855
      8 H          63.2016   83.5603    8.7749 H       1  UNL1        0.1517
      9 C          62.9104   84.9272   14.0783 C.ar    1  UNL1       -0.0026
     10 C          61.5872   84.9137   14.7847 C.ar    1  UNL1       -0.0005
     11 C          61.5075   85.2875   16.2352 C.ar    1  UNL1        0.0294
     12 C          62.7510   85.6748   16.9793 C.ar    1  UNL1        0.1410
     13 F          62.6713   86.0486   18.4298 F       1  UNL1       -0.2041
     14 C          64.0742   85.6883   16.2729 C.ar    1  UNL1        0.0407
     15 C          64.1539   85.3145   14.8224 C.ar    1  UNL1        0.0566
     16 CL         65.4771   85.3279   14.1160 Cl      1  UNL1       -0.0825
     17 C          62.4615   87.0095   11.9658 C.2     1  UNL1        0.3389
     18 O          61.0936   87.5769   11.7277 O.2     1  UNL1       -0.2452
     19 C          63.3614   89.3469   12.6562 C.3     1  UNL1        0.2559
     20 O          63.5254   87.8570   12.5980 O.3     1  UNL1       -0.4415
     21 C          63.5185   82.0973   13.2899 C.1     1  UNL1        0.0976
     22 N          63.7429   81.0562   14.3461 N.1     1  UNL1       -0.1911
     23 C          62.6208   86.2618    9.0648 C.3     1  UNL1        0.1699
     24 N          61.2453   86.4814    8.5084 N.ar    1  UNL1       -0.2242
     25 C          60.5317   85.5839    7.5414 C.ar    1  UNL1        0.1976
     26 N          59.1871   86.1849    7.2568 N.ar    1  UNL1       -0.2007
     27 C          59.0698   87.4540    8.0479 C.ar    1  UNL1        0.2210
     28 N          60.3418   87.6372    8.8215 N.ar    1  UNL1       -0.1448
@<TRIPOS>BOND
     1    19    20    1
     2    20    17    1
     3    17    18    2
     4    17     1    1
     5     1     2    2
     6     2    23    1
     7    23    24    1
     8    24    25   ar
     9    25    26   ar
    10    26    27   ar
    11    27    28   ar
    12     2     3    1
    13     3     4    1
    14     4     5    1
    15     4     6    2
    16     6    21    1
    17    21    22    3
    18     6     7    1
    19     7     9    1
    20     9    10   ar
    21    10    11   ar
    22    11    12   ar
    23    12    13    1
    24    12    14   ar
    25    14    15   ar
    26    15    16    1
    27     7     1    1
    28    15     9   ar
    29    28    24   ar
    30     3     8    1
@<TRIPOS>MOLECULE
*****
 28 30 0 0 0
SMALL
GASTEIGER

@<TRIPOS>ATOM
      1 C          65.1383   91.4151   13.1971 C.2     1  UNL1        0.0731
      2 C          65.4024   92.1895   11.9399 C.2     1  UNL1        0.0529
      3 N          64.4800   92.0499   10.7653 N.pl3   1  UNL1       -0.3173
      4 C          63.2935   91.1359   10.8479 C.2     1  UNL1        0.0317
      5 C          62.3711   90.9963    9.6733 C.3     1  UNL1        0.0475
      6 C          63.0295   90.3615   12.1051 C.2     1  UNL1        0.0635
      7 C          63.9519   90.5011   13.2797 C.3     1  UNL1        0.0855
      8 H          64.6534   92.5581    9.9402 H       1  UNL1        0.1517
      9 C          63.6877   89.7267   14.5369 C.ar    1  UNL1       -0.0026
     10 C          63.2833   90.4458   15.7897 C.ar    1  UNL1       -0.0005
     11 C          63.0192   89.6714   17.0469 C.ar    1  UNL1        0.0294
     12 C          63.1595   88.1780   17.0514 C.ar    1  UNL1        0.1410
     13 F          62.8954   87.4036   18.3086 F       1  UNL1       -0.2041
     14 C          63.5639   87.4589   15.7986 C.ar    1  UNL1        0.0407
     15 C          63.8280   88.2333   14.5414 C.ar    1  UNL1        0.0566
     16 CL         64.2325   87.5143   13.2886 Cl      1  UNL1       -0.0825
     17 C          66.0608   91.5547   14.3717 C.2     1  UNL1        0.3389
     18 O          67.1116   90.5155   14.6277 O.2     1  UNL1       -0.2452
     19 C          67.1236   93.2144   16.0645 C.3     1  UNL1        0.2559
     20 O          65.9323   92.7336   15.2902 O.3     1  UNL1       -0.4415
     21 C          61.8429   89.4475   12.1877 C.1     1  UNL1        0.0976
     22 N          60.6565   88.5335   12.2704 N.1     1  UNL1       -0.1911
     23 C          66.5890   93.1035   11.8572 C.3     1  UNL1        0.1699
     24 N          67.2712   93.3297   10.5407 N.ar    1  UNL1       -0.2242
     25 C          67.9318   92.2791    9.6981 C.ar    1  UNL1        0.1976
     26 N          68.4815   92.9462    8.4722 N.ar    1  UNL1       -0.2007
     27 C          68.1607   94.4091    8.5572 C.ar    1  UNL1        0.2210
     28 N          67.4127   94.6460    9.8356 N.ar    1  UNL1       -0.1448
@<TRIPOS>BOND
     1    19    20    1
     2    20    17    1
     3    17    18    2
     4    17     1    1
     5     1     2    2
     6     2    23    1
     7    23    24    1
     8    24    25   ar
     9    25    26   ar
    10    26    27   ar
    11    27    28   ar
    12     2     3    1
    13     3     4    1
    14     4     5    1
    15     4     6    2
    16     6    21    1
    17    21    22    3
    18     6     7    1
    19     7     9    1
    20     9    10   ar
    21    10    11   ar
    22    11    12   ar
    23    12    13    1
    24    12    14   ar
    25    14    15   ar
    26    15    16    1
    27     7     1    1
    28    15     9   ar
    29    28    24   ar
    30     3     8    1
@<TRIPOS>MOLECULE
*****
 28 30 0 0 0
SMALL
GASTEIGER

@<TRIPOS>ATOM
      1 C          61.4474   93.5503    0.6664 C.2     1  UNL1        0.0731
      2 C          60.3979   93.0741    1.6265 C.2     1  UNL1        0.0529
      3 N          59.0245   92.7341    1.1284 N.pl3   1  UNL1       -0.3173
      4 C          58.7005   92.8703   -0.3298 C.2     1  UNL1        0.0317
      5 C          57.3271   92.5303   -0.8279 C.3     1  UNL1        0.0475
      6 C          59.7500   93.3464   -1.2899 C.2     1  UNL1        0.0635
      7 C          61.1234   93.6864   -0.7918 C.3     1  UNL1        0.0855
      8 H          58.3357   92.4216    1.7586 H       1  UNL1        0.1517
      9 C          62.1729   94.1625   -1.7521 C.ar    1  UNL1       -0.0026
     10 C          63.0260   93.1692   -2.4838 C.ar    1  UNL1       -0.0005
     11 C          64.0755   93.6453   -3.4440 C.ar    1  UNL1        0.0294
     12 C          64.2718   95.1148   -3.6725 C.ar    1  UNL1        0.1410
     13 F          65.3212   95.5908   -4.6327 F       1  UNL1       -0.2041
     14 C          63.4186   96.1081   -2.9408 C.ar    1  UNL1        0.0407
     15 C          62.3692   95.6320   -1.9805 C.ar    1  UNL1        0.0566
     16 CL         61.5160   96.6253   -1.2488 Cl      1  UNL1       -0.0825
     17 C          62.8208   93.8903    1.1645 C.2     1  UNL1        0.3389
     18 O          63.1093   95.2656    1.6889 O.2     1  UNL1       -0.2452
     19 C          65.2951   93.2348    0.7190 C.3     1  UNL1        0.2559
     20 O          63.9058   92.8549    1.1381 O.3     1  UNL1       -0.4415
     21 C          59.4260   93.4826   -2.7482 C.1     1  UNL1        0.0976
     22 N          59.1021   93.6187   -4.2065 N.1     1  UNL1       -0.1911
     23 C          60.7219   92.9380    3.0848 C.3     1  UNL1        0.1699
     24 N          59.8185   92.1461    3.9830 N.ar    1  UNL1       -0.2242
     25 C          60.2384   91.0320    4.8954 C.ar    1  UNL1        0.1976
     26 N          59.0160   90.5266    5.6029 N.ar    1  UNL1       -0.2007
     27 C          57.8407   91.3284    5.1277 C.ar    1  UNL1        0.2210
     28 N          58.3367   92.3293    4.1266 N.ar    1  UNL1       -0.1448
@<TRIPOS>BOND
     1    19    20    1
     2    20    17    1
     3    17    18    2
     4    17     1    1
     5     1     2    2
     6     2    23    1
     7    23    24    1
     8    24    25   ar
     9    25    26   ar
    10    26    27   ar
    11    27    28   ar
    12     2     3    1
    13     3     4    1
    14     4     5    1
    15     4     6    2
    16     6    21    1
    17    21    22    3
    18     6     7    1
    19     7     9    1
    20     9    10   ar
    21    10    11   ar
    22    11    12   ar
    23    12    13    1
    24    12    14   ar
    25    14    15   ar
    26    15    16    1
    27     7     1    1
    28    15     9   ar
    29    28    24   ar
    30     3     8    1
@<TRIPOS>MOLECULE
*****
 28 30 0 0 0
SMALL
GASTEIGER

@<TRIPOS>ATOM
      1 C          62.5409   89.0923   11.6562 C.2     1  UNL1        0.0731
      2 C          63.3785   89.5137   12.8269 C.2     1  UNL1        0.0529
      3 N          63.9817   88.4782   13.7290 N.pl3   1  UNL1       -0.3173
      4 C          63.7474   87.0212   13.4603 C.2     1  UNL1        0.0317
      5 C          64.3507   85.9857   14.3624 C.3     1  UNL1        0.0475
      6 C          62.9098   86.5998   12.2895 C.2     1  UNL1        0.0635
      7 C          62.3065   87.6353   11.3875 C.3     1  UNL1        0.0855
      8 H          64.5315   88.7548   14.4974 H       1  UNL1        0.1517
      9 C          61.4689   87.2138   10.2166 C.ar    1  UNL1       -0.0026
     10 C          59.9894   87.4609   10.2253 C.ar    1  UNL1       -0.0005
     11 C          59.1517   87.0395    9.0546 C.ar    1  UNL1        0.0294
     12 C          59.7936   86.3709    7.8751 C.ar    1  UNL1        0.1410
     13 F          58.9559   85.9494    6.7043 F       1  UNL1       -0.2041
     14 C          61.2731   86.1238    7.8664 C.ar    1  UNL1        0.0407
     15 C          62.1107   86.5453    9.0372 C.ar    1  UNL1        0.0566
     16 CL         63.5902   86.2982    9.0286 Cl      1  UNL1       -0.0825
     17 C          61.9376   90.1278   10.7541 C.2     1  UNL1        0.3389
     18 O          62.7666   90.7554    9.6730 O.2     1  UNL1       -0.2452
     19 C          59.7288   90.0465   12.1196 C.3     1  UNL1        0.2559
     20 O          60.5054   90.5359   10.9332 O.3     1  UNL1       -0.4415
     21 C          62.6754   85.1427   12.0207 C.1     1  UNL1        0.0976
     22 N          62.4410   83.6858   11.7519 N.1     1  UNL1       -0.1911
     23 C          63.6129   90.9708   13.0957 C.3     1  UNL1        0.1699
     24 N          64.9167   91.6043   12.7102 N.ar    1  UNL1       -0.2242
     25 C          66.1294   91.7279   13.5843 C.ar    1  UNL1        0.1976
     26 N          67.1989   92.4254   12.7973 N.ar    1  UNL1       -0.2007
     27 C          66.6473   92.7329   11.4366 C.ar    1  UNL1        0.2210
     28 N          65.2368   92.2253   11.3829 N.ar    1  UNL1       -0.1448
@<TRIPOS>BOND
     1    19    20    1
     2    20    17    1
     3    17    18    2
     4    17     1    1
     5     1     2    2
     6     2    23    1
     7    23    24    1
     8    24    25   ar
     9    25    26   ar
    10    26    27   ar
    11    27    28   ar
    12     2     3    1
    13     3     4    1
    14     4     5    1
    15     4     6    2
    16     6    21    1
    17    21    22    3
    18     6     7    1
    19     7     9    1
    20     9    10   ar
    21    10    11   ar
    22    11    12   ar
    23    12    13    1
    24    12    14   ar
    25    14    15   ar
    26    15    16    1
    27     7     1    1
    28    15     9   ar
    29    28    24   ar
    30     3     8    1
@<TRIPOS>MOLECULE
*****
 28 30 0 0 0
SMALL
GASTEIGER

@<TRIPOS>ATOM
      1 C          62.8057   85.9959   11.5053 C.2     1  UNL1        0.0731
      2 C          62.9288   87.4339   11.9137 C.2     1  UNL1        0.0529
      3 N          63.5339   87.7878   13.2398 N.pl3   1  UNL1       -0.3173
      4 C          64.0158   86.7037   14.1576 C.2     1  UNL1        0.0317
      5 C          64.6209   87.0576   15.4837 C.3     1  UNL1        0.0475
      6 C          63.8927   85.2656   13.7492 C.2     1  UNL1        0.0635
      7 C          63.2876   84.9117   12.4230 C.3     1  UNL1        0.0855
      8 H          63.6147   88.7317   13.5078 H       1  UNL1        0.1517
      9 C          63.1645   83.4736   12.0147 C.ar    1  UNL1       -0.0026
     10 C          63.8440   82.9868   10.7692 C.ar    1  UNL1       -0.0005
     11 C          63.7209   81.5488   10.3608 C.ar    1  UNL1        0.0294
     12 C          62.9183   80.5974   11.1979 C.ar    1  UNL1        0.1410
     13 F          62.7952   79.1594   10.7896 F       1  UNL1       -0.2041
     14 C          62.2388   81.0842   12.4435 C.ar    1  UNL1        0.0407
     15 C          62.3619   82.5223   12.8518 C.ar    1  UNL1        0.0566
     16 CL         61.6824   83.0091   14.0974 Cl      1  UNL1       -0.0825
     17 C          62.2006   85.6420   10.1792 C.2     1  UNL1        0.3389
     18 O          63.0742   85.1501    9.0635 O.2     1  UNL1       -0.2452
     19 C          60.2000   86.4739    8.7456 C.3     1  UNL1        0.2559
     20 O          60.7219   85.7800    9.9687 O.3     1  UNL1       -0.4415
     21 C          64.3747   84.1814   14.6670 C.1     1  UNL1        0.0976
     22 N          64.8566   83.0972   15.5846 N.1     1  UNL1       -0.1911
     23 C          62.4469   88.5182   10.9959 C.3     1  UNL1        0.1699
     24 N          61.1375   89.1995   11.2626 N.ar    1  UNL1       -0.2242
     25 C          60.7539   90.5786   10.8145 C.ar    1  UNL1        0.1976
     26 N          59.3611   90.8529   11.2992 N.ar    1  UNL1       -0.2007
     27 C          58.8838   89.6431   12.0468 C.ar    1  UNL1        0.2210
     28 N          59.9817   88.6213   12.0242 N.ar    1  UNL1       -0.1448
@<TRIPOS>BOND
     1    19    20    1
     2    20    17    1
     3    17    18    2
     4    17     1    1
     5     1     2    2
     6     2    23    1
     7    23    24    1
     8    24    25   ar
     9    25    26   ar
    10    26    27   ar
    11    27    28   ar
    12     2     3    1
    13     3     4    1
    14     4     5    1
    15     4     6    2
    16     6    21    1
    17    21    22    3
    18     6     7    1
    19     7     9    1
    20     9    10   ar
    21    10    11   ar
    22    11    12   ar
    23    12    13    1
    24    12    14   ar
    25    14    15   ar
    26    15    16    1
    27     7     1    1
    28    15     9   ar
    29    28    24   ar
    30     3     8    1
