@<TRIPOS>MOLECULE
*****
 17 19 0 0 0
SMALL
GASTEIGER

@<TRIPOS>ATOM
      1 C          63.7839   83.5917   12.6929 C.ar    1  UNL1        0.0923
      2 C          64.5735   82.5826   11.9131 C.ar    1  UNL1        0.0055
      3 C          64.5260   82.5892   10.4139 C.ar    1  UNL1        0.0016
      4 C          63.6890   83.6050    9.6945 C.ar    1  UNL1        0.0204
      5 C          62.8994   84.6141   10.4743 C.ar    1  UNL1        0.0987
      6 C          62.9468   84.6075   11.9735 C.ar    1  UNL1        0.1256
      7 N          62.0683   85.7173   12.4699 N.ar    1  UNL1       -0.1288
      8 N          61.4779   86.4098   11.2776 N.ar    1  UNL1       -0.0639
      9 N          61.9915   85.7280   10.0442 N.ar    1  UNL1       -0.2318
     10 F          63.8787   83.5785   15.6914 F       1  UNL1       -0.1658
     11 C          63.8313   83.5851   14.1922 C.3     1  UNL1        0.4201
     12 F          62.4626   82.9726   14.2328 F       1  UNL1       -0.1658
     13 F          65.1999   84.1976   14.1516 F       1  UNL1       -0.1658
     14 C          61.6562   86.0955    8.6291 C.3     1  UNL1        0.1291
     15 C          60.4046   86.8667    8.3309 C.3     1  UNL1        0.0245
     16 C          58.9701   86.8961    7.8934 C.3     1  UNL1        0.0021
     17 C          59.6712   88.1728    8.2520 C.3     1  UNL1        0.0021
@<TRIPOS>BOND
     1    10    11    1
     2    11    12    1
     3    11    13    1
     4    11     1    1
     5     1     2   ar
     6     2     3   ar
     7     3     4   ar
     8     4     5   ar
     9     5     6   ar
    10     6     7   ar
    11     7     8   ar
    12     8     9   ar
    13     9    14    1
    14    14    15    1
    15    15    16    1
    16    16    17    1
    17     6     1   ar
    18    17    15    1
    19     9     5   ar
@<TRIPOS>MOLECULE
*****
 17 19 0 0 0
SMALL
GASTEIGER

@<TRIPOS>ATOM
      1 C          62.0974   86.4025    9.5954 C.ar    1  UNL1        0.0923
      2 C          62.6652   85.7644    8.3625 C.ar    1  UNL1        0.0055
      3 C          63.3800   84.4492    8.4599 C.ar    1  UNL1        0.0016
      4 C          63.5270   83.7723    9.7904 C.ar    1  UNL1        0.0204
      5 C          62.9592   84.4105   11.0233 C.ar    1  UNL1        0.0987
      6 C          62.2444   85.7256   10.9259 C.ar    1  UNL1        0.1256
      7 N          61.7924   86.1107   12.3034 N.ar    1  UNL1       -0.1288
      8 N          62.2278   85.0336   13.2522 N.ar    1  UNL1       -0.0639
      9 N          62.9489   83.9828   12.4610 N.ar    1  UNL1       -0.2318
     10 F          60.6678   89.0328    9.4005 F       1  UNL1       -0.1658
     11 C          61.3826   87.7177    9.4980 C.3     1  UNL1        0.4201
     12 F          62.6758   88.4384    9.7391 F       1  UNL1       -0.1658
     13 F          60.0894   86.9969    9.2568 F       1  UNL1       -0.1658
     14 C          63.5537   82.7251   13.0111 C.3     1  UNL1        0.1291
     15 C          62.6739   81.5639   13.3686 C.3     1  UNL1        0.0245
     16 C          62.4003   80.0891   13.3558 C.3     1  UNL1        0.0021
     17 C          61.4238   81.0275   14.0006 C.3     1  UNL1        0.0021
@<TRIPOS>BOND
     1    10    11    1
     2    11    12    1
     3    11    13    1
     4    11     1    1
     5     1     2   ar
     6     2     3   ar
     7     3     4   ar
     8     4     5   ar
     9     5     6   ar
    10     6     7   ar
    11     7     8   ar
    12     8     9   ar
    13     9    14    1
    14    14    15    1
    15    15    16    1
    16    16    17    1
    17     6     1   ar
    18    17    15    1
    19     9     5   ar
@<TRIPOS>MOLECULE
*****
 17 19 0 0 0
SMALL
GASTEIGER

@<TRIPOS>ATOM
      1 C          64.0086   90.4213   13.3210 C.ar    1  UNL1        0.0923
      2 C          63.2477   89.9797   12.1061 C.ar    1  UNL1        0.0055
      3 C          63.3664   90.7513   10.8253 C.ar    1  UNL1        0.0016
      4 C          64.2461   91.9645   10.7594 C.ar    1  UNL1        0.0204
      5 C          65.0070   92.4061   11.9743 C.ar    1  UNL1        0.0987
      6 C          64.8882   91.6345   13.2551 C.ar    1  UNL1        0.1256
      7 N          65.7524   92.3047   14.2818 N.ar    1  UNL1       -0.1288
      8 N          66.4052   93.4905   13.6355 N.ar    1  UNL1       -0.0639
      9 N          65.9445   93.5531   12.2094 N.ar    1  UNL1       -0.2318
     10 F          63.7711   88.8781   15.8827 F       1  UNL1       -0.1658
     11 C          63.8898   89.6497   14.6019 C.3     1  UNL1        0.4201
     12 F          64.4264   88.4284   13.9159 F       1  UNL1       -0.1658
     13 F          63.3532   90.8709   15.2878 F       1  UNL1       -0.1658
     14 C          66.3501   94.5822   11.1962 C.3     1  UNL1        0.1291
     15 C          67.1353   94.1736    9.9851 C.3     1  UNL1        0.0245
     16 C          67.5932   94.4424    8.5822 C.3     1  UNL1        0.0021
     17 C          68.0375   93.1970    9.2905 C.3     1  UNL1        0.0021
@<TRIPOS>BOND
     1    10    11    1
     2    11    12    1
     3    11    13    1
     4    11     1    1
     5     1     2   ar
     6     2     3   ar
     7     3     4   ar
     8     4     5   ar
     9     5     6   ar
    10     6     7   ar
    11     7     8   ar
    12     8     9   ar
    13     9    14    1
    14    14    15    1
    15    15    16    1
    16    16    17    1
    17     6     1   ar
    18    17    15    1
    19     9     5   ar
@<TRIPOS>MOLECULE
*****
 17 19 0 0 0
SMALL
GASTEIGER

@<TRIPOS>ATOM
      1 C          63.0809   90.4224   11.8074 C.ar    1  UNL1        0.0923
      2 C          63.7812   91.2118   10.7414 C.ar    1  UNL1        0.0055
      3 C          64.8608   92.1838   11.1151 C.ar    1  UNL1        0.0016
      4 C          65.2402   92.3664   12.5547 C.ar    1  UNL1        0.0204
      5 C          64.5399   91.5771   13.6208 C.ar    1  UNL1        0.0987
      6 C          63.4603   90.6051   13.2471 C.ar    1  UNL1        0.1256
      7 N          62.9504   89.9716   14.5076 N.ar    1  UNL1       -0.1288
      8 N          63.7149   90.5520   15.6602 N.ar    1  UNL1       -0.0639
      9 N          64.6973   91.5443   15.1121 N.ar    1  UNL1       -0.2318
     10 F          60.9217   88.4784   11.0602 F       1  UNL1       -0.1658
     11 C          62.0013   89.4504   11.4338 C.3     1  UNL1        0.4201
     12 F          62.9514   88.3107   11.6535 F       1  UNL1       -0.1658
     13 F          61.0512   90.5902   11.2141 F       1  UNL1       -0.1658
     14 C          65.6668   92.3605   15.9145 C.3     1  UNL1        0.1291
     15 C          67.1323   92.3085   15.5987 C.3     1  UNL1        0.0245
     16 C          68.2415   92.1697   14.5985 C.3     1  UNL1        0.0021
     17 C          68.5614   92.3571   16.0520 C.3     1  UNL1        0.0021
@<TRIPOS>BOND
     1    10    11    1
     2    11    12    1
     3    11    13    1
     4    11     1    1
     5     1     2   ar
     6     2     3   ar
     7     3     4   ar
     8     4     5   ar
     9     5     6   ar
    10     6     7   ar
    11     7     8   ar
    12     8     9   ar
    13     9    14    1
    14    14    15    1
    15    15    16    1
    16    16    17    1
    17     6     1   ar
    18    17    15    1
    19     9     5   ar
@<TRIPOS>MOLECULE
*****
 17 19 0 0 0
SMALL
GASTEIGER

@<TRIPOS>ATOM
      1 C          65.8715   92.2060   13.4930 C.ar    1  UNL1        0.0923
      2 C          66.2891   92.7566   12.1617 C.ar    1  UNL1        0.0055
      3 C          65.4782   92.4530   10.9368 C.ar    1  UNL1        0.0016
      4 C          64.2498   91.5988   11.0432 C.ar    1  UNL1        0.0204
      5 C          63.8322   91.0483   12.3746 C.ar    1  UNL1        0.0987
      6 C          64.6431   91.3519   13.5995 C.ar    1  UNL1        0.1256
      7 N          63.9898   90.6744   14.7675 N.ar    1  UNL1       -0.1288
      8 N          62.7752   89.9521   14.2645 N.ar    1  UNL1       -0.0639
      9 N          62.6778   90.1832   12.7856 N.ar    1  UNL1       -0.2318
     10 F          67.4932   92.8132   15.9428 F       1  UNL1       -0.1658
     11 C          66.6823   92.5096   14.7179 C.3     1  UNL1        0.4201
     12 F          67.0796   91.0663   14.8127 F       1  UNL1       -0.1658
     13 F          66.2850   93.9530   14.6232 F       1  UNL1       -0.1658
     14 C          61.6130   89.6438   11.8771 C.3     1  UNL1        0.1291
     15 C          61.8808   88.4207   11.0510 C.3     1  UNL1        0.0245
     16 C          62.0901   87.7776    9.7121 C.3     1  UNL1        0.0021
     17 C          62.1352   86.9453   10.9592 C.3     1  UNL1        0.0021
@<TRIPOS>BOND
     1    10    11    1
     2    11    12    1
     3    11    13    1
     4    11     1    1
     5     1     2   ar
     6     2     3   ar
     7     3     4   ar
     8     4     5   ar
     9     5     6   ar
    10     6     7   ar
    11     7     8   ar
    12     8     9   ar
    13     9    14    1
    14    14    15    1
    15    15    16    1
    16    16    17    1
    17     6     1   ar
    18    17    15    1
    19     9     5   ar
@<TRIPOS>MOLECULE
*****
 17 19 0 0 0
SMALL
GASTEIGER

@<TRIPOS>ATOM
      1 C          62.4903   81.6416   13.1406 C.ar    1  UNL1        0.0923
      2 C          63.0125   81.6177   11.7347 C.ar    1  UNL1        0.0055
      3 C          63.9739   82.6728   11.2736 C.ar    1  UNL1        0.0016
      4 C          64.4130   83.7518   12.2185 C.ar    1  UNL1        0.0204
      5 C          63.8907   83.7757   13.6244 C.ar    1  UNL1        0.0987
      6 C          62.9294   82.7206   14.0854 C.ar    1  UNL1        0.1256
      7 N          62.5866   83.0003   15.5188 N.ar    1  UNL1       -0.1288
      8 N          63.3361   84.2282   15.9436 N.ar    1  UNL1       -0.0639
      9 N          64.1421   84.7074   14.7728 N.ar    1  UNL1       -0.2318
     10 F          60.5676   79.5314   14.0626 F       1  UNL1       -0.1658
     11 C          61.5289   80.5865   13.6016 C.3     1  UNL1        0.4201
     12 F          62.4107   79.5256   13.0125 F       1  UNL1       -0.1658
     13 F          60.6471   81.6473   14.1907 F       1  UNL1       -0.1658
     14 C          65.0415   85.9077   14.7537 C.3     1  UNL1        0.1291
     15 C          64.4540   87.2836   14.6448 C.3     1  UNL1        0.0245
     16 C          63.8919   88.5115   15.2977 C.3     1  UNL1        0.0021
     17 C          63.9984   88.4387   13.8033 C.3     1  UNL1        0.0021
@<TRIPOS>BOND
     1    10    11    1
     2    11    12    1
     3    11    13    1
     4    11     1    1
     5     1     2   ar
     6     2     3   ar
     7     3     4   ar
     8     4     5   ar
     9     5     6   ar
    10     6     7   ar
    11     7     8   ar
    12     8     9   ar
    13     9    14    1
    14    14    15    1
    15    15    16    1
    16    16    17    1
    17     6     1   ar
    18    17    15    1
    19     9     5   ar
@<TRIPOS>MOLECULE
*****
 17 19 0 0 0
SMALL
GASTEIGER

@<TRIPOS>ATOM
      1 C          63.4755   84.0953   12.4245 C.ar    1  UNL1        0.0923
      2 C          64.3680   83.1208   11.7149 C.ar    1  UNL1        0.0055
      3 C          64.3789   83.0680   10.2158 C.ar    1  UNL1        0.0016
      4 C          63.4972   83.9897    9.4265 C.ar    1  UNL1        0.0204
      5 C          62.6047   84.9642   10.1361 C.ar    1  UNL1        0.0987
      6 C          62.5938   85.0170   11.6352 C.ar    1  UNL1        0.1256
      7 N          61.6162   86.0745   12.0546 N.ar    1  UNL1       -0.1288
      8 N          61.0228   86.6753   10.8148 N.ar    1  UNL1       -0.0639
      9 N          61.6338   85.9890    9.6292 N.ar    1  UNL1       -0.2318
     10 F          63.4537   84.2010   15.4226 F       1  UNL1       -0.1658
     11 C          63.4646   84.1482   13.9236 C.3     1  UNL1        0.4201
     12 F          64.7661   84.8936   13.9067 F       1  UNL1       -0.1658
     13 F          62.1630   83.4027   13.9404 F       1  UNL1       -0.1658
     14 C          61.3276   86.2771    8.1893 C.3     1  UNL1        0.1291
     15 C          61.6211   85.2466    7.1394 C.3     1  UNL1        0.0245
     16 C          62.5791   84.6081    6.1778 C.3     1  UNL1        0.0021
     17 C          61.1715   84.1004    6.2826 C.3     1  UNL1        0.0021
@<TRIPOS>BOND
     1    10    11    1
     2    11    12    1
     3    11    13    1
     4    11     1    1
     5     1     2   ar
     6     2     3   ar
     7     3     4   ar
     8     4     5   ar
     9     5     6   ar
    10     6     7   ar
    11     7     8   ar
    12     8     9   ar
    13     9    14    1
    14    14    15    1
    15    15    16    1
    16    16    17    1
    17     6     1   ar
    18    17    15    1
    19     9     5   ar
@<TRIPOS>MOLECULE
*****
 17 19 0 0 0
SMALL
GASTEIGER

@<TRIPOS>ATOM
      1 C          65.1781   92.3336   11.5032 C.ar    1  UNL1        0.0923
      2 C          64.1977   91.5974   10.6390 C.ar    1  UNL1        0.0055
      3 C          63.1740   90.6975   11.2652 C.ar    1  UNL1        0.0016
      4 C          63.1306   90.5338   12.7556 C.ar    1  UNL1        0.0204
      5 C          64.1110   91.2700   13.6198 C.ar    1  UNL1        0.0987
      6 C          65.1348   92.1699   12.9935 C.ar    1  UNL1        0.1256
      7 N          65.9656   92.7623   14.0929 N.ar    1  UNL1       -0.1288
      8 N          65.4554   92.2286   15.3986 N.ar    1  UNL1       -0.0639
      9 N          64.3092   91.3063   15.1062 N.ar    1  UNL1       -0.2318
     10 F          67.2256   94.1333   10.2507 F       1  UNL1       -0.1658
     11 C          66.2019   93.2335   10.8769 C.3     1  UNL1        0.4201
     12 F          66.9203   92.0356   10.3302 F       1  UNL1       -0.1658
     13 F          65.4834   94.4313   11.4237 F       1  UNL1       -0.1658
     14 C          63.5027   90.5526   16.1218 C.3     1  UNL1        0.1291
     15 C          63.5159   89.0525   16.1268 C.3     1  UNL1        0.0245
     16 C          63.8998   87.7547   15.4802 C.3     1  UNL1        0.0021
     17 C          63.1548   87.7525   16.7821 C.3     1  UNL1        0.0021
@<TRIPOS>BOND
     1    10    11    1
     2    11    12    1
     3    11    13    1
     4    11     1    1
     5     1     2   ar
     6     2     3   ar
     7     3     4   ar
     8     4     5   ar
     9     5     6   ar
    10     6     7   ar
    11     7     8   ar
    12     8     9   ar
    13     9    14    1
    14    14    15    1
    15    15    16    1
    16    16    17    1
    17     6     1   ar
    18    17    15    1
    19     9     5   ar
@<TRIPOS>MOLECULE
*****
 17 19 0 0 0
SMALL
GASTEIGER

@<TRIPOS>ATOM
      1 C          62.9699   82.9616   11.7628 C.ar    1  UNL1        0.0923
      2 C          62.5764   84.1068   10.8777 C.ar    1  UNL1        0.0055
      3 C          62.5394   85.5018   11.4279 C.ar    1  UNL1        0.0016
      4 C          62.8960   85.7515   12.8633 C.ar    1  UNL1        0.0204
      5 C          63.2896   84.6063   13.7485 C.ar    1  UNL1        0.0987
      6 C          63.3265   83.2114   13.1982 C.ar    1  UNL1        0.1256
      7 N          63.7499   82.2886   14.3025 N.ar    1  UNL1       -0.1288
      8 N          63.9746   83.1133   15.5352 N.ar    1  UNL1       -0.0639
      9 N          63.6901   84.5457   15.1927 N.ar    1  UNL1       -0.2318
     10 F          63.0438   80.1717   10.6624 F       1  UNL1       -0.1658
     11 C          63.0069   81.5667   11.2126 C.3     1  UNL1        0.4201
     12 F          61.9059   81.1678   12.1501 F       1  UNL1       -0.1658
     13 F          64.1078   81.9656   10.2752 F       1  UNL1       -0.1658
     14 C          63.7888   85.7126   16.1300 C.3     1  UNL1        0.1291
     15 C          63.9373   87.1022   15.5847 C.3     1  UNL1        0.0245
     16 C          63.6542   88.5721   15.6799 C.3     1  UNL1        0.0021
     17 C          64.4776   88.0388   14.5451 C.3     1  UNL1        0.0021
@<TRIPOS>BOND
     1    10    11    1
     2    11    12    1
     3    11    13    1
     4    11     1    1
     5     1     2   ar
     6     2     3   ar
     7     3     4   ar
     8     4     5   ar
     9     5     6   ar
    10     6     7   ar
    11     7     8   ar
    12     8     9   ar
    13     9    14    1
    14    14    15    1
    15    15    16    1
    16    16    17    1
    17     6     1   ar
    18    17    15    1
    19     9     5   ar
