@<TRIPOS>MOLECULE
*****
 26 29 0 0 0
SMALL
GASTEIGER

@<TRIPOS>ATOM
      1 C          64.0833   84.8364   13.2994 C.2     1  UNL1        0.1514
      2 N          64.8052   85.3932   14.4906 N.2     1  UNL1       -0.2531
      3 C          64.2206   86.5473   15.2498 C.3     1  UNL1        0.1051
      4 C          63.4740   86.3033   16.5277 C.3     1  UNL1        0.0244
      5 C          62.8894   87.4574   17.2869 C.3     1  UNL1        0.0020
      6 C          63.0516   88.8555   16.7682 C.3     1  UNL1        0.0001
      7 C          63.7982   89.0995   15.4903 C.3     1  UNL1        0.0020
      8 C          64.3827   87.9454   14.7311 C.3     1  UNL1        0.0244
      9 N          64.6679   83.6822   12.5402 N.pl3   1  UNL1       -0.3151
     10 H          65.5354   83.7811   12.0853 H       1  UNL1        0.1486
     11 C          63.9307   82.3776   12.4742 C.3     1  UNL1        0.0708
     12 C          63.5408   81.6716   13.7389 C.3     1  UNL1        0.0195
     13 C          62.8036   80.3669   13.6728 C.3     1  UNL1        0.0017
     14 C          62.4562   79.7683   12.3420 C.3     1  UNL1        0.0001
     15 C          62.8461   80.4744   11.0773 C.3     1  UNL1        0.0017
     16 C          63.5833   81.7790   11.1434 C.3     1  UNL1        0.0195
     17 S          62.7769   85.4337   12.8673 S.3     1  UNL1       -0.0744
     18 C          62.4643   85.5775   11.4074 C.3     1  UNL1        0.1066
     19 C          62.4956   88.2497   11.3505 C.2     1  UNL1        0.0494
     20 C          62.0407   86.9077   10.8586 C.2     1  UNL1        0.0484
     21 N          61.0878   87.1294    9.7215 N.pl3   1  UNL1       -0.2678
     22 C          60.2177   86.4369    8.7148 C.3     1  UNL1        0.1234
     23 C          59.5460   87.4880    7.8818 C.3     1  UNL1        0.1492
     24 N          60.0009   88.8301    8.3737 N.2     1  UNL1       -0.2486
     25 C          60.9538   88.6084    9.5107 C.2     1  UNL1        0.1623
     26 S          61.8238   89.3009   10.5175 S.3     1  UNL1       -0.0516
@<TRIPOS>BOND
     1    19    20    2
     2    20    18    1
     3    18    17    1
     4    17     1    1
     5     1     2    2
     6     2     3    1
     7     3     4    1
     8     4     5    1
     9     5     6    1
    10     6     7    1
    11     7     8    1
    12     1     9    1
    13     9    11    1
    14    11    12    1
    15    12    13    1
    16    13    14    1
    17    14    15    1
    18    15    16    1
    19    20    21    1
    20    21    22    1
    21    22    23    1
    22    23    24    1
    23    24    25    2
    24    25    26    1
    25    26    19    1
    26     8     3    1
    27    16    11    1
    28    25    21    1
    29     9    10    1
@<TRIPOS>MOLECULE
*****
 26 29 0 0 0
SMALL
GASTEIGER

@<TRIPOS>ATOM
      1 C          64.1337   84.8100   13.3247 C.2     1  UNL1        0.1514
      2 N          64.7971   85.3162   14.5712 N.2     1  UNL1       -0.2531
      3 C          64.2105   86.4806   15.3130 C.3     1  UNL1        0.1051
      4 C          63.4312   86.2509   16.5739 C.3     1  UNL1        0.0244
      5 C          62.8447   87.4151   17.3158 C.3     1  UNL1        0.0020
      6 C          63.0374   88.8092   16.7967 C.3     1  UNL1        0.0001
      7 C          63.8167   89.0389   15.5357 C.3     1  UNL1        0.0020
      8 C          64.4032   87.8746   14.7939 C.3     1  UNL1        0.0244
      9 N          64.7202   83.6456   12.5829 N.pl3   1  UNL1       -0.3151
     10 H          65.6015   83.7298   12.1521 H       1  UNL1        0.1486
     11 C          63.9641   82.3530   12.4974 C.3     1  UNL1        0.0708
     12 C          63.6323   81.7653   11.1578 C.3     1  UNL1        0.0195
     13 C          62.8762   80.4727   11.0725 C.3     1  UNL1        0.0017
     14 C          62.4517   79.7677   12.3266 C.3     1  UNL1        0.0001
     15 C          62.7835   80.3555   13.6662 C.3     1  UNL1        0.0017
     16 C          63.5397   81.6481   13.7516 C.3     1  UNL1        0.0195
     17 S          62.8837   85.4680   12.8201 S.3     1  UNL1       -0.0744
     18 C          62.5018   85.3439   11.3748 C.3     1  UNL1        0.1066
     19 C          60.8080   86.3756    9.5827 C.2     1  UNL1        0.0494
     20 C          61.8288   86.4879   10.6761 C.2     1  UNL1        0.0484
     21 N          62.0584   87.9451   10.9479 N.pl3   1  UNL1       -0.2678
     22 C          62.8312   88.9151   11.7916 C.3     1  UNL1        0.1234
     23 C          62.4300   90.3028   11.3878 C.3     1  UNL1        0.1492
     24 N          61.4092   90.1906   10.2944 N.2     1  UNL1       -0.2486
     25 C          61.1796   88.7334   10.0226 C.2     1  UNL1        0.1623
     26 S          60.4068   87.7634    9.1788 S.3     1  UNL1       -0.0516
@<TRIPOS>BOND
     1    19    20    2
     2    20    18    1
     3    18    17    1
     4    17     1    1
     5     1     2    2
     6     2     3    1
     7     3     4    1
     8     4     5    1
     9     5     6    1
    10     6     7    1
    11     7     8    1
    12     1     9    1
    13     9    11    1
    14    11    12    1
    15    12    13    1
    16    13    14    1
    17    14    15    1
    18    15    16    1
    19    20    21    1
    20    21    22    1
    21    22    23    1
    22    23    24    1
    23    24    25    2
    24    25    26    1
    25    26    19    1
    26     8     3    1
    27    16    11    1
    28    25    21    1
    29     9    10    1
@<TRIPOS>MOLECULE
*****
 26 29 0 0 0
SMALL
GASTEIGER

@<TRIPOS>ATOM
      1 C          63.4572   90.2832   14.2288 C.2     1  UNL1        0.1514
      2 N          64.0797   91.6022   13.8784 N.2     1  UNL1       -0.2531
      3 C          65.4871   91.9032   14.3012 C.3     1  UNL1        0.1051
      4 C          66.6194   91.6976   13.3391 C.3     1  UNL1        0.0244
      5 C          68.0268   91.9986   13.7618 C.3     1  UNL1        0.0020
      6 C          68.3019   92.5051   15.1467 C.3     1  UNL1        0.0001
      7 C          67.1695   92.7106   16.1088 C.3     1  UNL1        0.0020
      8 C          65.7621   92.4096   15.6860 C.3     1  UNL1        0.0244
      9 N          62.0498   89.9822   13.8060 N.pl3   1  UNL1       -0.3151
     10 H          61.3329   89.9356   14.4791 H       1  UNL1        0.1486
     11 C          61.7348   89.7522   12.3577 C.3     1  UNL1        0.0708
     12 C          60.4306   90.2276   11.7891 C.3     1  UNL1        0.0195
     13 C          60.1157   89.9975   10.3407 C.3     1  UNL1        0.0017
     14 C          61.1047   89.2922    9.4608 C.3     1  UNL1        0.0001
     15 C          62.4089   88.8168   10.0294 C.3     1  UNL1        0.0017
     16 C          62.7239   89.0469   11.4778 C.3     1  UNL1        0.0195
     17 S          64.2420   89.2651   15.0019 S.3     1  UNL1       -0.0744
     18 C          64.4361   87.8862   14.4443 C.3     1  UNL1        0.1066
     19 C          63.2166   86.7186   16.5165 C.2     1  UNL1        0.0494
     20 C          63.8782   86.6982   15.1704 C.2     1  UNL1        0.0484
     21 N          63.8840   85.2813   14.6781 N.pl3   1  UNL1       -0.2678
     22 C          64.2965   84.3931   13.5419 C.3     1  UNL1        0.1234
     23 C          63.8934   82.9888   13.8815 C.3     1  UNL1        0.1492
     24 N          63.2317   83.0091   15.2275 N.2     1  UNL1       -0.2486
     25 C          63.2259   84.4260   15.7199 C.2     1  UNL1        0.1623
     26 S          62.8134   85.3142   16.8560 S.3     1  UNL1       -0.0516
@<TRIPOS>BOND
     1    19    20    2
     2    20    18    1
     3    18    17    1
     4    17     1    1
     5     1     2    2
     6     2     3    1
     7     3     4    1
     8     4     5    1
     9     5     6    1
    10     6     7    1
    11     7     8    1
    12     1     9    1
    13     9    11    1
    14    11    12    1
    15    12    13    1
    16    13    14    1
    17    14    15    1
    18    15    16    1
    19    20    21    1
    20    21    22    1
    21    22    23    1
    22    23    24    1
    23    24    25    2
    24    25    26    1
    25    26    19    1
    26     8     3    1
    27    16    11    1
    28    25    21    1
    29     9    10    1
@<TRIPOS>MOLECULE
*****
 26 29 0 0 0
SMALL
GASTEIGER

@<TRIPOS>ATOM
      1 C          63.8626   85.0293   13.7922 C.2     1  UNL1        0.1514
      2 N          64.2402   83.6472   14.2363 N.2     1  UNL1       -0.2531
      3 C          63.3695   82.4798   13.8770 C.3     1  UNL1        0.1051
      4 C          62.0985   82.2312   14.6338 C.3     1  UNL1        0.0244
      5 C          61.2277   81.0639   14.2745 C.3     1  UNL1        0.0020
      6 C          61.6281   80.1451   13.1584 C.3     1  UNL1        0.0001
      7 C          62.8991   80.3937   12.4016 C.3     1  UNL1        0.0020
      8 C          63.7698   81.5611   12.7609 C.3     1  UNL1        0.0244
      9 N          64.7333   86.1967   14.1516 N.pl3   1  UNL1       -0.3151
     10 H          65.6629   86.2350   13.8295 H       1  UNL1        0.1486
     11 C          64.1878   87.3056   15.0016 C.3     1  UNL1        0.0708
     12 C          64.2983   88.7284   14.5398 C.3     1  UNL1        0.0195
     13 C          63.7527   89.8373   15.3899 C.3     1  UNL1        0.0017
     14 C          63.0965   89.5234   16.7017 C.3     1  UNL1        0.0001
     15 C          62.9860   88.1005   17.1635 C.3     1  UNL1        0.0017
     16 C          63.5316   86.9916   16.3134 C.3     1  UNL1        0.0195
     17 S          62.6142   85.2440   12.9887 S.3     1  UNL1       -0.0744
     18 C          62.7078   85.5252   11.5183 C.3     1  UNL1        0.1066
     19 C          62.5582   88.1936   11.4737 C.2     1  UNL1        0.0494
     20 C          62.2018   86.8264   10.9699 C.2     1  UNL1        0.0484
     21 N          61.2507   86.9889    9.8214 N.pl3   1  UNL1       -0.2678
     22 C          60.4427   86.2444    8.8003 C.3     1  UNL1        0.1234
     23 C          59.7118   87.2519    7.9632 C.3     1  UNL1        0.1492
     24 N          60.0681   88.6191    8.4669 N.2     1  UNL1       -0.2486
     25 C          61.0192   88.4566    9.6154 C.2     1  UNL1        0.1623
     26 S          61.8272   89.2011   10.6365 S.3     1  UNL1       -0.0516
@<TRIPOS>BOND
     1    19    20    2
     2    20    18    1
     3    18    17    1
     4    17     1    1
     5     1     2    2
     6     2     3    1
     7     3     4    1
     8     4     5    1
     9     5     6    1
    10     6     7    1
    11     7     8    1
    12     1     9    1
    13     9    11    1
    14    11    12    1
    15    12    13    1
    16    13    14    1
    17    14    15    1
    18    15    16    1
    19    20    21    1
    20    21    22    1
    21    22    23    1
    22    23    24    1
    23    24    25    2
    24    25    26    1
    25    26    19    1
    26     8     3    1
    27    16    11    1
    28    25    21    1
    29     9    10    1
@<TRIPOS>MOLECULE
*****
 26 29 0 0 0
SMALL
GASTEIGER

@<TRIPOS>ATOM
      1 C          64.0457   84.8797   13.8013 C.2     1  UNL1        0.1514
      2 N          64.0990   83.5860   14.5586 N.2     1  UNL1       -0.2531
      3 C          63.2621   82.4226   14.1157 C.3     1  UNL1        0.1051
      4 C          63.8091   81.4398   13.1233 C.3     1  UNL1        0.0244
      5 C          62.9723   80.2764   12.6803 C.3     1  UNL1        0.0020
      6 C          61.5882   80.0958   13.2299 C.3     1  UNL1        0.0001
      7 C          61.0412   81.0786   14.2223 C.3     1  UNL1        0.0020
      8 C          61.8781   82.2420   14.6652 C.3     1  UNL1        0.0244
      9 N          64.8826   86.0430   14.2442 N.pl3   1  UNL1       -0.3151
     10 H          65.8339   86.0884   13.9946 H       1  UNL1        0.1486
     11 C          64.2701   87.1372   15.0673 C.3     1  UNL1        0.0708
     12 C          63.5488   86.8045   16.3396 C.3     1  UNL1        0.0195
     13 C          62.9363   87.8987   17.1627 C.3     1  UNL1        0.0017
     14 C          63.0452   89.3257   16.7135 C.3     1  UNL1        0.0001
     15 C          63.7666   89.6585   15.4411 C.3     1  UNL1        0.0017
     16 C          64.3790   88.5642   14.6180 C.3     1  UNL1        0.0195
     17 S          63.1555   85.0100   12.6010 S.3     1  UNL1       -0.0744
     18 C          62.7864   86.3692   12.0850 C.3     1  UNL1        0.1066
     19 C          60.6527   87.2929   10.7662 C.2     1  UNL1        0.0494
     20 C          61.9217   86.4994   10.8662 C.2     1  UNL1        0.0484
     21 N          62.1743   85.8590    9.5335 N.pl3   1  UNL1       -0.2678
     22 C          63.1146   84.9728    8.7717 C.3     1  UNL1        0.1234
     23 C          62.5829   84.8227    7.3772 C.3     1  UNL1        0.1492
     24 N          61.3138   85.6162    7.2771 N.2     1  UNL1       -0.2486
     25 C          61.0613   86.2566    8.6098 C.2     1  UNL1        0.1623
     26 S          60.1209   87.1428    9.3716 S.3     1  UNL1       -0.0516
@<TRIPOS>BOND
     1    19    20    2
     2    20    18    1
     3    18    17    1
     4    17     1    1
     5     1     2    2
     6     2     3    1
     7     3     4    1
     8     4     5    1
     9     5     6    1
    10     6     7    1
    11     7     8    1
    12     1     9    1
    13     9    11    1
    14    11    12    1
    15    12    13    1
    16    13    14    1
    17    14    15    1
    18    15    16    1
    19    20    21    1
    20    21    22    1
    21    22    23    1
    22    23    24    1
    23    24    25    2
    24    25    26    1
    25    26    19    1
    26     8     3    1
    27    16    11    1
    28    25    21    1
    29     9    10    1
@<TRIPOS>MOLECULE
*****
 26 29 0 0 0
SMALL
GASTEIGER

@<TRIPOS>ATOM
      1 C          63.9054   84.9929   13.8192 C.2     1  UNL1        0.1514
      2 N          64.2310   83.6157   14.3163 N.2     1  UNL1       -0.2531
      3 C          63.3621   82.4548   13.9324 C.3     1  UNL1        0.1051
      4 C          62.0622   82.2232   14.6441 C.3     1  UNL1        0.0244
      5 C          61.1933   81.0623   14.2602 C.3     1  UNL1        0.0020
      6 C          61.6244   80.1330   13.1644 C.3     1  UNL1        0.0001
      7 C          62.9243   80.3646   12.4527 C.3     1  UNL1        0.0020
      8 C          63.7932   81.5255   12.8367 C.3     1  UNL1        0.0244
      9 N          64.7743   86.1538   14.2032 N.pl3   1  UNL1       -0.3151
     10 H          65.7116   86.1873   13.9039 H       1  UNL1        0.1486
     11 C          64.2150   87.2635   15.0431 C.3     1  UNL1        0.0708
     12 C          63.5329   86.9505   16.3418 C.3     1  UNL1        0.0195
     13 C          62.9736   88.0604   17.1818 C.3     1  UNL1        0.0017
     14 C          63.0965   89.4832   16.7231 C.3     1  UNL1        0.0001
     15 C          63.7787   89.7962   15.4243 C.3     1  UNL1        0.0017
     16 C          64.3379   88.6864   14.5843 C.3     1  UNL1        0.0195
     17 S          62.7109   85.2093   12.9380 S.3     1  UNL1       -0.0744
     18 C          62.8878   85.3445   11.4546 C.3     1  UNL1        0.1066
     19 C          61.0626   85.9863    9.6102 C.2     1  UNL1        0.0494
     20 C          62.0520   86.3245   10.6859 C.2     1  UNL1        0.0484
     21 N          62.0587   87.8146   10.8577 N.pl3   1  UNL1       -0.2678
     22 C          62.6744   88.9444   11.6287 C.3     1  UNL1        0.1234
     23 C          62.0697   90.2256   11.1358 C.3     1  UNL1        0.1492
     24 N          61.0803   89.8875   10.0602 N.2     1  UNL1       -0.2486
     25 C          61.0736   88.3974    9.8883 C.2     1  UNL1        0.1623
     26 S          60.4579   87.2676    9.1173 S.3     1  UNL1       -0.0516
@<TRIPOS>BOND
     1    19    20    2
     2    20    18    1
     3    18    17    1
     4    17     1    1
     5     1     2    2
     6     2     3    1
     7     3     4    1
     8     4     5    1
     9     5     6    1
    10     6     7    1
    11     7     8    1
    12     1     9    1
    13     9    11    1
    14    11    12    1
    15    12    13    1
    16    13    14    1
    17    14    15    1
    18    15    16    1
    19    20    21    1
    20    21    22    1
    21    22    23    1
    22    23    24    1
    23    24    25    2
    24    25    26    1
    25    26    19    1
    26     8     3    1
    27    16    11    1
    28    25    21    1
    29     9    10    1
@<TRIPOS>MOLECULE
*****
 26 29 0 0 0
SMALL
GASTEIGER

@<TRIPOS>ATOM
      1 C          64.1013   90.1328   13.9520 C.2     1  UNL1        0.1514
      2 N          64.7087   89.3707   15.0923 N.2     1  UNL1       -0.2531
      3 C          64.0929   88.0797   15.5441 C.3     1  UNL1        0.1051
      4 C          64.3965   86.8068   14.8109 C.3     1  UNL1        0.0244
      5 C          63.7807   85.5158   15.2627 C.3     1  UNL1        0.0020
      6 C          62.8612   85.4977   16.4478 C.3     1  UNL1        0.0001
      7 C          62.5576   86.7706   17.1810 C.3     1  UNL1        0.0020
      8 C          63.1735   88.0616   16.7292 C.3     1  UNL1        0.0244
      9 N          64.7171   91.4238   13.5002 N.pl3   1  UNL1       -0.3151
     10 H          64.2878   91.9515   12.7886 H       1  UNL1        0.1486
     11 C          65.9871   91.9107   14.1326 C.3     1  UNL1        0.0708
     12 C          65.9583   92.5116   15.5067 C.3     1  UNL1        0.0195
     13 C          67.2284   92.9984   16.1390 C.3     1  UNL1        0.0017
     14 C          68.5273   92.8845   15.3974 C.3     1  UNL1        0.0001
     15 C          68.5560   92.2835   14.0233 C.3     1  UNL1        0.0017
     16 C          67.2859   91.7966   13.3909 C.3     1  UNL1        0.0195
     17 S          62.8780   89.6040   13.2636 S.3     1  UNL1       -0.0744
     18 C          62.8745   89.4231   11.7745 C.3     1  UNL1        0.1066
     19 C          62.4574   86.7895   11.5868 C.2     1  UNL1        0.0494
     20 C          62.2307   88.2119   11.1676 C.2     1  UNL1        0.0484
     21 N          61.2471   88.2102   10.0351 N.pl3   1  UNL1       -0.2678
     22 C          60.4992   89.0882    9.0761 C.3     1  UNL1        0.1234
     23 C          59.6558   88.2075    8.2027 C.3     1  UNL1        0.1492
     24 N          59.8824   86.7852    8.6218 N.2     1  UNL1       -0.2486
     25 C          60.8660   86.7868    9.7543 C.2     1  UNL1        0.1623
     26 S          61.6139   85.9088   10.7133 S.3     1  UNL1       -0.0516
@<TRIPOS>BOND
     1    19    20    2
     2    20    18    1
     3    18    17    1
     4    17     1    1
     5     1     2    2
     6     2     3    1
     7     3     4    1
     8     4     5    1
     9     5     6    1
    10     6     7    1
    11     7     8    1
    12     1     9    1
    13     9    11    1
    14    11    12    1
    15    12    13    1
    16    13    14    1
    17    14    15    1
    18    15    16    1
    19    20    21    1
    20    21    22    1
    21    22    23    1
    22    23    24    1
    23    24    25    2
    24    25    26    1
    25    26    19    1
    26     8     3    1
    27    16    11    1
    28    25    21    1
    29     9    10    1
@<TRIPOS>MOLECULE
*****
 26 29 0 0 0
SMALL
GASTEIGER

@<TRIPOS>ATOM
      1 C          63.5256   90.0909   13.5687 C.2     1  UNL1        0.1514
      2 N          63.7987   89.8538   15.0244 N.2     1  UNL1       -0.2531
      3 C          63.7052   88.4671   15.5889 C.3     1  UNL1        0.1051
      4 C          62.9511   88.2252   16.8627 C.3     1  UNL1        0.0244
      5 C          62.8575   86.8386   17.4272 C.3     1  UNL1        0.0020
      6 C          63.5182   85.6939   16.7177 C.3     1  UNL1        0.0001
      7 C          64.2724   85.9359   15.4439 C.3     1  UNL1        0.0020
      8 C          64.3659   87.3225   14.8795 C.3     1  UNL1        0.0244
      9 N          63.6192   91.4776   13.0043 N.pl3   1  UNL1       -0.3151
     10 H          62.8513   92.0899   13.0730 H       1  UNL1        0.1486
     11 C          64.8826   91.9312   12.3351 C.3     1  UNL1        0.0708
     12 C          64.8583   92.3576   10.8972 C.3     1  UNL1        0.0195
     13 C          66.1218   92.8112   10.2280 C.3     1  UNL1        0.0017
     14 C          67.4096   92.8385   10.9967 C.3     1  UNL1        0.0001
     15 C          67.4338   92.4121   12.4347 C.3     1  UNL1        0.0017
     16 C          66.1703   91.9585   13.1038 C.3     1  UNL1        0.0195
     17 S          63.1590   88.9415   12.6773 S.3     1  UNL1       -0.0744
     18 C          62.4063   89.1903   11.4040 C.3     1  UNL1        0.1066
     19 C          62.1578   86.5861   10.8550 C.2     1  UNL1        0.0494
     20 C          61.8513   88.0360   10.6231 C.2     1  UNL1        0.0484
     21 N          60.8924   88.1291    9.4734 N.pl3   1  UNL1       -0.2678
     22 C          60.1104   89.0827    8.6196 C.3     1  UNL1        0.1234
     23 C          59.3409   88.2796    7.6131 C.3     1  UNL1        0.1492
     24 N          59.6474   86.8297    7.8449 N.2     1  UNL1       -0.2486
     25 C          60.6063   86.7366    8.9946 C.2     1  UNL1        0.1623
     26 S          61.3883   85.7830    9.8484 S.3     1  UNL1       -0.0516
@<TRIPOS>BOND
     1    19    20    2
     2    20    18    1
     3    18    17    1
     4    17     1    1
     5     1     2    2
     6     2     3    1
     7     3     4    1
     8     4     5    1
     9     5     6    1
    10     6     7    1
    11     7     8    1
    12     1     9    1
    13     9    11    1
    14    11    12    1
    15    12    13    1
    16    13    14    1
    17    14    15    1
    18    15    16    1
    19    20    21    1
    20    21    22    1
    21    22    23    1
    22    23    24    1
    23    24    25    2
    24    25    26    1
    25    26    19    1
    26     8     3    1
    27    16    11    1
    28    25    21    1
    29     9    10    1
@<TRIPOS>MOLECULE
*****
 26 29 0 0 0
SMALL
GASTEIGER

@<TRIPOS>ATOM
      1 C          63.6883   90.7527   13.5742 C.2     1  UNL1        0.1514
      2 N          64.6826   90.4616   14.6589 N.2     1  UNL1       -0.2531
      3 C          65.8945   91.3310   14.8185 C.3     1  UNL1        0.1051
      4 C          67.0503   91.1875   13.8732 C.3     1  UNL1        0.0244
      5 C          68.2622   92.0569   14.0327 C.3     1  UNL1        0.0020
      6 C          68.3183   93.0699   15.1377 C.3     1  UNL1        0.0001
      7 C          67.1625   93.2134   16.0829 C.3     1  UNL1        0.0020
      8 C          65.9506   92.3440   15.9233 C.3     1  UNL1        0.0244
      9 N          62.4764   89.8832   13.4146 N.pl3   1  UNL1       -0.3151
     10 H          62.0345   89.5042   14.2085 H       1  UNL1        0.1486
     11 C          61.9379   89.5914   12.0454 C.3     1  UNL1        0.0708
     12 C          60.7481   90.3460   11.5308 C.3     1  UNL1        0.0195
     13 C          60.2096   90.0541   10.1616 C.3     1  UNL1        0.0017
     14 C          60.8609   89.0075    9.3069 C.3     1  UNL1        0.0001
     15 C          62.0508   88.2528    9.8215 C.3     1  UNL1        0.0017
     16 C          62.5893   88.5448   11.1907 C.3     1  UNL1        0.0195
     17 S          63.9058   91.9133   12.6490 S.3     1  UNL1       -0.0744
     18 C          64.7357   91.7406   11.4115 C.3     1  UNL1        0.1066
     19 C          65.2379   94.3295   10.9748 C.2     1  UNL1        0.0494
     20 C          65.5868   92.8718   10.9154 C.2     1  UNL1        0.0484
     21 N          66.9361   92.7439   10.2728 N.pl3   1  UNL1       -0.2678
     22 C          67.9857   91.7639    9.8391 C.3     1  UNL1        0.1234
     23 C          69.1194   92.5369    9.2332 C.3     1  UNL1        0.1492
     24 N          68.7706   93.9946    9.2926 N.2     1  UNL1       -0.2486
     25 C          67.4213   94.1225    9.9351 C.2     1  UNL1        0.1623
     26 S          66.3717   95.1025   10.3689 S.3     1  UNL1       -0.0516
@<TRIPOS>BOND
     1    19    20    2
     2    20    18    1
     3    18    17    1
     4    17     1    1
     5     1     2    2
     6     2     3    1
     7     3     4    1
     8     4     5    1
     9     5     6    1
    10     6     7    1
    11     7     8    1
    12     1     9    1
    13     9    11    1
    14    11    12    1
    15    12    13    1
    16    13    14    1
    17    14    15    1
    18    15    16    1
    19    20    21    1
    20    21    22    1
    21    22    23    1
    22    23    24    1
    23    24    25    2
    24    25    26    1
    25    26    19    1
    26     8     3    1
    27    16    11    1
    28    25    21    1
    29     9    10    1
