@<TRIPOS>MOLECULE
*****
 41 45 0 0 0
SMALL
GASTEIGER

@<TRIPOS>ATOM
      1 C          61.5885   86.3827    9.3198 C.ar    1  UNL1        0.0611
      2 C          60.2558   86.2806    8.6389 C.ar    1  UNL1        0.1037
      3 N          59.4757   87.5212    8.9588 N.ar    1  UNL1       -0.2269
      4 C          60.3261   88.3899    9.8375 C.ar    1  UNL1        0.1407
      5 N          60.0802   89.7308   10.4632 N.ar    1  UNL1       -0.3374
      6 C          61.1401   90.3680   11.3120 C.ar    1  UNL1        0.0735
      7 C          62.4459   89.6644   11.5352 C.ar    1  UNL1        0.0202
      8 C          62.6918   88.3235   10.9094 C.ar    1  UNL1        0.0047
      9 C          61.6319   87.6863   10.0606 C.ar    1  UNL1        0.0386
     10 H          59.2231   90.1926   10.3168 H       1  UNL1        0.1674
     11 C          63.5058   90.3017   12.3840 C.ar    1  UNL1        0.0411
     12 C          63.9745   89.8140   13.7229 C.ar    1  UNL1        0.1217
     13 N          65.0414   90.7494   14.2094 N.ar    1  UNL1       -0.1676
     14 N          65.2320   91.8152   13.1713 N.ar    1  UNL1       -0.2480
     15 C          64.2829   91.5385   12.0432 C.ar    1  UNL1        0.0967
     16 C          66.2015   92.9573   13.2479 C.3     1  UNL1        0.1448
     17 C          66.2208   93.9984   12.1682 C.3     1  UNL1        0.0989
     18 N          66.9245   93.7223   10.8726 N.3     1  UNL1       -0.2667
     19 C          66.9361   94.7599    9.7895 C.3     1  UNL1        0.1047
     20 C          67.6397   94.4839    8.4939 C.3     1  UNL1        0.1595
     21 O          68.3318   93.1702    8.2814 O.3     1  UNL1       -0.3508
     22 C          68.3202   92.1325    9.3645 C.3     1  UNL1        0.1595
     23 C          67.6165   92.4086   10.6601 C.3     1  UNL1        0.1047
     24 C          62.6852   85.3606    9.2689 C.2     1  UNL1        0.2015
     25 O          63.4427   85.1362    7.9940 O.2     1  UNL1       -0.2864
     26 C          62.7135   84.0918   13.0292 C.ar    1  UNL1        0.0920
     27 C          63.7025   82.9675   12.9416 C.ar    1  UNL1        0.0204
     28 C          64.3525   82.6409   11.6297 C.ar    1  UNL1        0.0312
     29 C          64.0134   83.4385   10.4055 C.ar    1  UNL1        0.1454
     30 F          64.6633   83.1119    9.0937 F       1  UNL1       -0.2040
     31 C          63.0243   84.5628   10.4932 C.ar    1  UNL1        0.0951
     32 C          62.3744   84.8894   11.8050 C.ar    1  UNL1        0.1598
     33 F          61.3853   86.0138   11.8926 F       1  UNL1       -0.2026
     34 N          62.0635   84.4184   14.3411 N.pl3   1  UNL1       -0.2166
     35 H          61.1219   84.1772   14.4975 H       1  UNL1        0.1734
     36 S          62.8482   85.1124   15.4146 S.O2    1  UNL1        0.0540
     37 O          63.4378   86.0336   14.3881 O.2     1  UNL1       -0.1545
     38 O          62.2586   84.1912   16.4411 O.2     1  UNL1       -0.1545
     39 C          63.6329   85.8064   16.4882 C.3     1  UNL1        0.1724
     40 C          62.9880   88.2416   17.1238 C.3     1  UNL1        0.0019
     41 C          62.9496   86.7702   17.4125 C.3     1  UNL1        0.0273
@<TRIPOS>BOND
     1    40    41    1
     2    41    39    1
     3    39    36    1
     4    36    37    2
     5    36    38    2
     6    36    34    1
     7    34    26    1
     8    26    27   ar
     9    27    28   ar
    10    28    29   ar
    11    29    30    1
    12    29    31   ar
    13    31    24    1
    14    24    25    2
    15    24     1    1
    16     1     2   ar
    17     2     3   ar
    18     3     4   ar
    19     4     5   ar
    20     5     6   ar
    21     6     7   ar
    22     7    11    1
    23    11    12   ar
    24    12    13   ar
    25    13    14   ar
    26    14    16    1
    27    16    17    1
    28    17    18    1
    29    18    19    1
    30    19    20    1
    31    20    21    1
    32    21    22    1
    33    22    23    1
    34    14    15   ar
    35     7     8   ar
    36     8     9   ar
    37    31    32   ar
    38    32    33    1
    39    32    26   ar
    40     9     1   ar
    41     9     4    1
    42    15    11   ar
    43    23    18    1
    44    34    35    1
    45     5    10    1
@<TRIPOS>MOLECULE
*****
 41 45 0 0 0
SMALL
GASTEIGER

@<TRIPOS>ATOM
      1 C          61.8127   89.8902   11.5955 C.ar    1  UNL1        0.0611
      2 C          60.9210   90.8543   10.8706 C.ar    1  UNL1        0.1037
      3 N          60.3006   90.1307    9.7123 N.ar    1  UNL1       -0.2269
      4 C          60.8088   88.7194    9.7214 C.ar    1  UNL1        0.1407
      5 N          60.5414   87.5506    8.8202 N.ar    1  UNL1       -0.3374
      6 C          61.2085   86.2330    9.0829 C.ar    1  UNL1        0.0735
      7 C          62.1430   86.0844   10.2467 C.ar    1  UNL1        0.0202
      8 C          62.4104   87.2532   11.1479 C.ar    1  UNL1        0.0047
      9 C          61.7434   88.5708   10.8852 C.ar    1  UNL1        0.0386
     10 H          59.9281   87.6482    8.0563 H       1  UNL1        0.1674
     11 C          62.8101   84.7667   10.5094 C.ar    1  UNL1        0.0411
     12 C          63.8184   84.0969    9.6236 C.ar    1  UNL1        0.1217
     13 N          64.2175   82.8039   10.2706 N.ar    1  UNL1       -0.1676
     14 N          63.4558   82.6745   11.5564 N.ar    1  UNL1       -0.2480
     15 C          62.5860   83.8876   11.7039 C.ar    1  UNL1        0.0967
     16 C          63.5478   81.5325   12.5246 C.3     1  UNL1        0.1448
     17 C          63.9939   81.7793   13.9353 C.3     1  UNL1        0.0989
     18 N          63.8168   83.1354   14.5515 N.3     1  UNL1       -0.2667
     19 C          64.8672   84.1890   14.3605 C.3     1  UNL1        0.1047
     20 C          64.6901   85.5450   14.9768 C.3     1  UNL1        0.1595
     21 O          63.4625   85.8474   15.7840 O.3     1  UNL1       -0.3508
     22 C          62.4122   84.7938   15.9750 C.3     1  UNL1        0.1595
     23 C          62.5893   83.4377   15.3588 C.3     1  UNL1        0.1047
     24 C          62.6301   90.1924   12.8163 C.2     1  UNL1        0.2015
     25 O          62.1534   89.7476   14.1671 O.2     1  UNL1       -0.2864
     26 C          65.5403   92.4137   11.2843 C.ar    1  UNL1        0.0920
     27 C          66.5130   92.4333   12.4261 C.ar    1  UNL1        0.0204
     28 C          66.1914   91.7058   13.6978 C.ar    1  UNL1        0.0312
     29 C          64.8972   90.9589   13.8280 C.ar    1  UNL1        0.1454
     30 F          64.5756   90.2314   15.0997 F       1  UNL1       -0.2040
     31 C          63.9245   90.9394   12.6862 C.ar    1  UNL1        0.0951
     32 C          64.2461   91.6668   11.4145 C.ar    1  UNL1        0.1598
     33 F          63.2733   91.6472   10.2728 F       1  UNL1       -0.2026
     34 N          65.8619   93.1412   10.0126 N.pl3   1  UNL1       -0.2166
     35 H          65.6540   92.7284    9.1433 H       1  UNL1        0.1734
     36 S          66.5002   94.4975   10.0652 S.O2    1  UNL1        0.0540
     37 O          67.8064   93.8996    9.6337 O.2     1  UNL1       -0.1545
     38 O          65.1940   95.0955   10.4968 O.2     1  UNL1       -0.1545
     39 C          67.1384   95.8540   10.1179 C.3     1  UNL1        0.1724
     40 C          66.4368   96.7956    7.8003 C.3     1  UNL1        0.0019
     41 C          67.4878   96.5684    8.8461 C.3     1  UNL1        0.0273
@<TRIPOS>BOND
     1    40    41    1
     2    41    39    1
     3    39    36    1
     4    36    37    2
     5    36    38    2
     6    36    34    1
     7    34    26    1
     8    26    27   ar
     9    27    28   ar
    10    28    29   ar
    11    29    30    1
    12    29    31   ar
    13    31    24    1
    14    24    25    2
    15    24     1    1
    16     1     2   ar
    17     2     3   ar
    18     3     4   ar
    19     4     5   ar
    20     5     6   ar
    21     6     7   ar
    22     7    11    1
    23    11    12   ar
    24    12    13   ar
    25    13    14   ar
    26    14    16    1
    27    16    17    1
    28    17    18    1
    29    18    19    1
    30    19    20    1
    31    20    21    1
    32    21    22    1
    33    22    23    1
    34    14    15   ar
    35     7     8   ar
    36     8     9   ar
    37    31    32   ar
    38    32    33    1
    39    32    26   ar
    40     9     1   ar
    41     9     4    1
    42    15    11   ar
    43    23    18    1
    44    34    35    1
    45     5    10    1
@<TRIPOS>MOLECULE
*****
 41 45 0 0 0
SMALL
GASTEIGER

@<TRIPOS>ATOM
      1 C          63.9260   85.8116   15.6105 C.ar    1  UNL1        0.0611
      2 C          63.2723   85.2661   16.8454 C.ar    1  UNL1        0.1037
      3 N          62.7818   86.4255   17.6609 N.ar    1  UNL1       -0.2269
      4 C          63.1324   87.6876   16.9300 C.ar    1  UNL1        0.1407
      5 N          62.8990   89.1333   17.2546 N.ar    1  UNL1       -0.3374
      6 C          63.3728   90.1996   16.3120 C.ar    1  UNL1        0.0735
      7 C          64.0800   89.8201   15.0448 C.ar    1  UNL1        0.0202
      8 C          64.3133   88.3744   14.7201 C.ar    1  UNL1        0.0047
      9 C          63.8395   87.3082   15.6627 C.ar    1  UNL1        0.0386
     10 H          62.4349   89.3824   18.0864 H       1  UNL1        0.1674
     11 C          64.5538   90.8865   14.1021 C.ar    1  UNL1        0.0411
     12 C          64.0359   91.1314   12.7158 C.ar    1  UNL1        0.1217
     13 N          64.7906   92.2913   12.1372 N.ar    1  UNL1       -0.1676
     14 N          65.7750   92.7633   13.1659 N.ar    1  UNL1       -0.2480
     15 C          65.6286   91.8951   14.3803 C.ar    1  UNL1        0.0967
     16 C          66.7369   93.9034   13.0080 C.3     1  UNL1        0.1448
     17 C          66.3290   95.1287   12.2448 C.3     1  UNL1        0.0989
     18 N          66.7745   95.3103   10.8241 N.3     1  UNL1       -0.2667
     19 C          66.7521   96.6739   10.1996 C.3     1  UNL1        0.1047
     20 C          67.1976   96.8556    8.7789 C.3     1  UNL1        0.1595
     21 O          67.6655   95.6736    7.9827 O.3     1  UNL1       -0.3508
     22 C          67.6880   94.3100    8.6072 C.3     1  UNL1        0.1595
     23 C          67.2424   94.1284   10.0279 C.3     1  UNL1        0.1047
     24 C          64.5556   85.0025   14.5155 C.2     1  UNL1        0.2015
     25 O          65.9929   84.5869   14.6216 O.2     1  UNL1       -0.2864
     26 C          62.4428   85.2676   11.1664 C.ar    1  UNL1        0.0920
     27 C          62.1324   83.8223   10.9120 C.ar    1  UNL1        0.0204
     28 C          62.6297   82.7705   11.8586 C.ar    1  UNL1        0.0312
     29 C          63.4375   83.1638   13.0598 C.ar    1  UNL1        0.1454
     30 F          63.9348   82.1119   14.0064 F       1  UNL1       -0.2040
     31 C          63.7478   84.6091   13.3143 C.ar    1  UNL1        0.0951
     32 C          63.2505   85.6610   12.3676 C.ar    1  UNL1        0.1598
     33 F          63.5609   87.1063   12.6222 F       1  UNL1       -0.2026
     34 N          61.9454   86.3195   10.2198 N.pl3   1  UNL1       -0.2166
     35 H          61.8368   87.2480   10.5286 H       1  UNL1        0.1734
     36 S          61.6136   85.9567    8.8027 S.O2    1  UNL1        0.0540
     37 O          60.1680   86.2608    9.0633 O.2     1  UNL1       -0.1545
     38 O          63.0591   85.6526    8.5420 O.2     1  UNL1       -0.1545
     39 C          61.2818   85.5939    7.3856 C.3     1  UNL1        0.1724
     40 C          61.7477   84.0341    5.3606 C.3     1  UNL1        0.0019
     41 C          62.2318   84.7539    6.5843 C.3     1  UNL1        0.0273
@<TRIPOS>BOND
     1    40    41    1
     2    41    39    1
     3    39    36    1
     4    36    37    2
     5    36    38    2
     6    36    34    1
     7    34    26    1
     8    26    27   ar
     9    27    28   ar
    10    28    29   ar
    11    29    30    1
    12    29    31   ar
    13    31    24    1
    14    24    25    2
    15    24     1    1
    16     1     2   ar
    17     2     3   ar
    18     3     4   ar
    19     4     5   ar
    20     5     6   ar
    21     6     7   ar
    22     7    11    1
    23    11    12   ar
    24    12    13   ar
    25    13    14   ar
    26    14    16    1
    27    16    17    1
    28    17    18    1
    29    18    19    1
    30    19    20    1
    31    20    21    1
    32    21    22    1
    33    22    23    1
    34    14    15   ar
    35     7     8   ar
    36     8     9   ar
    37    31    32   ar
    38    32    33    1
    39    32    26   ar
    40     9     1   ar
    41     9     4    1
    42    15    11   ar
    43    23    18    1
    44    34    35    1
    45     5    10    1
@<TRIPOS>MOLECULE
*****
 41 45 0 0 0
SMALL
GASTEIGER

@<TRIPOS>ATOM
      1 C          60.8741   89.2102   10.4166 C.ar    1  UNL1        0.0611
      2 C          60.0417   89.8978    9.3753 C.ar    1  UNL1        0.1037
      3 N          59.9045   88.9700    8.2047 N.ar    1  UNL1       -0.2269
      4 C          60.6521   87.7090    8.5225 C.ar    1  UNL1        0.1407
      5 N          60.8646   86.4448    7.7438 N.ar    1  UNL1       -0.3374
      6 C          61.6764   85.3290    8.3321 C.ar    1  UNL1        0.0735
      7 C          62.2756   85.4775    9.6992 C.ar    1  UNL1        0.0202
      8 C          62.0631   86.7418   10.4779 C.ar    1  UNL1        0.0047
      9 C          61.2513   87.8575    9.8896 C.ar    1  UNL1        0.0386
     10 H          60.4713   86.3473    6.8465 H       1  UNL1        0.1674
     11 C          63.0874   84.3617   10.2875 C.ar    1  UNL1        0.0411
     12 C          64.1351   83.5614    9.5720 C.ar    1  UNL1        0.1217
     13 N          64.6892   82.5554   10.5368 N.ar    1  UNL1       -0.1676
     14 N          63.9839   82.7340   11.8486 N.ar    1  UNL1       -0.2480
     15 C          62.9940   83.8503   11.6945 C.ar    1  UNL1        0.0967
     16 C          64.2262   81.9362   13.0956 C.3     1  UNL1        0.1448
     17 C          63.4659   82.2542   14.3489 C.3     1  UNL1        0.0989
     18 N          63.5030   83.6421   14.9168 N.3     1  UNL1       -0.2667
     19 C          64.6472   84.5555   14.5908 C.3     1  UNL1        0.1047
     20 C          64.6843   85.9433   15.1587 C.3     1  UNL1        0.1595
     21 O          63.5772   86.4177   16.0526 O.3     1  UNL1       -0.3508
     22 C          62.4329   85.5043   16.3786 C.3     1  UNL1        0.1595
     23 C          62.3958   84.1164   15.8107 C.3     1  UNL1        0.1047
     24 C          61.2612   89.7761   11.7508 C.2     1  UNL1        0.2015
     25 O          60.3108   89.6869   12.9077 O.2     1  UNL1       -0.2864
     26 C          64.6644   90.9642   13.4113 C.ar    1  UNL1        0.0920
     27 C          65.2745   91.7411   12.2825 C.ar    1  UNL1        0.0204
     28 C          64.5469   91.8630   10.9764 C.ar    1  UNL1        0.0312
     29 C          63.2091   91.2080   10.7992 C.ar    1  UNL1        0.1454
     30 F          62.4815   91.3299    9.4931 F       1  UNL1       -0.2040
     31 C          62.5990   90.4311   11.9280 C.ar    1  UNL1        0.0951
     32 C          63.3267   90.3093   13.2340 C.ar    1  UNL1        0.1598
     33 F          62.7165   89.5323   14.3628 F       1  UNL1       -0.2026
     34 N          65.3920   90.8424   14.7173 N.pl3   1  UNL1       -0.2166
     35 H          65.3208   90.0143   15.2450 H       1  UNL1        0.1734
     36 S          66.2281   91.9821   15.2192 S.O2    1  UNL1        0.0540
     37 O          67.4454   91.3618   14.6001 O.2     1  UNL1       -0.1545
     38 O          65.0108   92.6025   15.8383 O.2     1  UNL1       -0.1545
     39 C          67.0641   93.1219   15.7211 C.3     1  UNL1        0.1724
     40 C          69.4238   94.1633   16.0336 C.3     1  UNL1        0.0019
     41 C          68.5481   92.9572   15.8647 C.3     1  UNL1        0.0273
@<TRIPOS>BOND
     1    40    41    1
     2    41    39    1
     3    39    36    1
     4    36    37    2
     5    36    38    2
     6    36    34    1
     7    34    26    1
     8    26    27   ar
     9    27    28   ar
    10    28    29   ar
    11    29    30    1
    12    29    31   ar
    13    31    24    1
    14    24    25    2
    15    24     1    1
    16     1     2   ar
    17     2     3   ar
    18     3     4   ar
    19     4     5   ar
    20     5     6   ar
    21     6     7   ar
    22     7    11    1
    23    11    12   ar
    24    12    13   ar
    25    13    14   ar
    26    14    16    1
    27    16    17    1
    28    17    18    1
    29    18    19    1
    30    19    20    1
    31    20    21    1
    32    21    22    1
    33    22    23    1
    34    14    15   ar
    35     7     8   ar
    36     8     9   ar
    37    31    32   ar
    38    32    33    1
    39    32    26   ar
    40     9     1   ar
    41     9     4    1
    42    15    11   ar
    43    23    18    1
    44    34    35    1
    45     5    10    1
@<TRIPOS>MOLECULE
*****
 41 45 0 0 0
SMALL
GASTEIGER

@<TRIPOS>ATOM
      1 C          63.9855   85.7869   15.5998 C.ar    1  UNL1        0.0611
      2 C          63.3231   85.2414   16.8301 C.ar    1  UNL1        0.1037
      3 N          62.8057   86.3999   17.6302 N.ar    1  UNL1       -0.2269
      4 C          63.1483   87.6613   16.8945 C.ar    1  UNL1        0.1407
      5 N          62.8906   89.1060   17.2051 N.ar    1  UNL1       -0.3374
      6 C          63.3620   90.1718   16.2608 C.ar    1  UNL1        0.0735
      7 C          64.0912   89.7930   15.0059 C.ar    1  UNL1        0.0202
      8 C          64.3490   88.3483   14.6953 C.ar    1  UNL1        0.0047
      9 C          63.8775   87.2825   15.6396 C.ar    1  UNL1        0.0386
     10 H          62.4120   89.3546   18.0287 H       1  UNL1        0.1674
     11 C          64.5627   90.8589   14.0615 C.ar    1  UNL1        0.0411
     12 C          64.0484   91.0967   12.6727 C.ar    1  UNL1        0.1217
     13 N          64.7990   92.2588   12.0930 N.ar    1  UNL1       -0.1676
     14 N          65.7772   92.7393   13.1237 N.ar    1  UNL1       -0.2480
     15 C          65.6312   91.8740   14.3403 C.ar    1  UNL1        0.0967
     16 C          66.7336   93.8840   12.9656 C.3     1  UNL1        0.1448
     17 C          66.3187   95.1083   12.2049 C.3     1  UNL1        0.0989
     18 N          66.7632   95.2953   10.7845 N.3     1  UNL1       -0.2667
     19 C          66.7932   96.6690   10.1827 C.3     1  UNL1        0.1047
     20 C          67.2377   96.8560    8.7624 C.3     1  UNL1        0.1595
     21 O          67.6522   95.6693    7.9438 O.3     1  UNL1       -0.3508
     22 C          67.6222   94.2957    8.5456 C.3     1  UNL1        0.1595
     23 C          67.1776   94.1087    9.9660 C.3     1  UNL1        0.1047
     24 C          64.6409   84.9787   14.5193 C.2     1  UNL1        0.2015
     25 O          66.1219   84.7438   14.5522 O.2     1  UNL1       -0.2864
     26 C          62.4163   84.7362   11.2417 C.ar    1  UNL1        0.0920
     27 C          62.1636   83.2589   11.1794 C.ar    1  UNL1        0.0204
     28 C          62.7366   82.3550   12.2303 C.ar    1  UNL1        0.0312
     29 C          63.5624   82.9282   13.3436 C.ar    1  UNL1        0.1454
     30 F          64.1354   82.0242   14.3945 F       1  UNL1       -0.2040
     31 C          63.8151   84.4054   13.4060 C.ar    1  UNL1        0.0951
     32 C          63.2420   85.3094   12.3550 C.ar    1  UNL1        0.1598
     33 F          63.4948   86.7866   12.4175 F       1  UNL1       -0.2026
     34 N          61.8432   85.6401   10.1908 N.pl3   1  UNL1       -0.2166
     35 H          61.6017   85.2775    9.3080 H       1  UNL1        0.1734
     36 S          61.6382   87.0966   10.4850 S.O2    1  UNL1        0.0540
     37 O          60.6737   86.7403   11.5770 O.2     1  UNL1       -0.1545
     38 O          62.6028   87.4530    9.3929 O.2     1  UNL1       -0.1545
     39 C          61.4333   88.5531   10.7790 C.3     1  UNL1        0.1724
     40 C          59.7130   90.4482   11.2263 C.3     1  UNL1        0.0019
     41 C          60.1059   89.1946   10.5022 C.3     1  UNL1        0.0273
@<TRIPOS>BOND
     1    40    41    1
     2    41    39    1
     3    39    36    1
     4    36    37    2
     5    36    38    2
     6    36    34    1
     7    34    26    1
     8    26    27   ar
     9    27    28   ar
    10    28    29   ar
    11    29    30    1
    12    29    31   ar
    13    31    24    1
    14    24    25    2
    15    24     1    1
    16     1     2   ar
    17     2     3   ar
    18     3     4   ar
    19     4     5   ar
    20     5     6   ar
    21     6     7   ar
    22     7    11    1
    23    11    12   ar
    24    12    13   ar
    25    13    14   ar
    26    14    16    1
    27    16    17    1
    28    17    18    1
    29    18    19    1
    30    19    20    1
    31    20    21    1
    32    21    22    1
    33    22    23    1
    34    14    15   ar
    35     7     8   ar
    36     8     9   ar
    37    31    32   ar
    38    32    33    1
    39    32    26   ar
    40     9     1   ar
    41     9     4    1
    42    15    11   ar
    43    23    18    1
    44    34    35    1
    45     5    10    1
@<TRIPOS>MOLECULE
*****
 41 45 0 0 0
SMALL
GASTEIGER

@<TRIPOS>ATOM
      1 C          63.4483   84.1479   14.0942 C.ar    1  UNL1        0.0611
      2 C          63.0095   83.3137   15.2611 C.ar    1  UNL1        0.1037
      3 N          62.7980   84.2282   16.4311 N.ar    1  UNL1       -0.2269
      4 C          63.1061   85.6276   15.9873 C.ar    1  UNL1        0.1407
      5 N          63.0726   86.9406   16.7118 N.ar    1  UNL1       -0.3374
      6 C          63.4410   88.2039   15.9919 C.ar    1  UNL1        0.0735
      7 C          63.8429   88.1543   14.5476 C.ar    1  UNL1        0.0202
      8 C          63.8765   86.8413   13.8232 C.ar    1  UNL1        0.0047
      9 C          63.5080   85.5779   14.5430 C.ar    1  UNL1        0.0386
     10 H          62.8088   86.9732   17.6597 H       1  UNL1        0.1674
     11 C          64.2114   89.4177   13.8278 C.ar    1  UNL1        0.0411
     12 C          63.5515   89.9524   12.5914 C.ar    1  UNL1        0.1217
     13 N          64.2366   91.2334   12.2174 N.ar    1  UNL1       -0.1676
     14 N          65.3199   91.4903   13.2227 N.ar    1  UNL1       -0.2480
     15 C          65.3043   90.3681   14.2180 C.ar    1  UNL1        0.0967
     16 C          66.2547   92.6634   13.2312 C.3     1  UNL1        0.1448
     17 C          67.2326   92.8513   12.1095 C.3     1  UNL1        0.0989
     18 N          66.9857   93.9014   11.0672 N.3     1  UNL1       -0.2667
     19 C          67.5861   93.7571    9.7003 C.3     1  UNL1        0.1047
     20 C          67.3392   94.8072    8.6580 C.3     1  UNL1        0.1595
     21 O          66.4919   96.0015    8.9827 O.3     1  UNL1       -0.3508
     22 C          65.8914   96.1458   10.3497 C.3     1  UNL1        0.1595
     23 C          66.1383   95.0957   11.3920 C.3     1  UNL1        0.1047
     24 C          63.7709   83.6410   12.7198 C.2     1  UNL1        0.2015
     25 O          64.6444   82.4334   12.5515 O.2     1  UNL1       -0.2864
     26 C          61.5150   85.9905   10.4523 C.ar    1  UNL1        0.0920
     27 C          62.1174   85.7435    9.1009 C.ar    1  UNL1        0.0204
     28 C          63.2709   84.7957    8.9559 C.ar    1  UNL1        0.0312
     29 C          63.8221   84.0949   10.1621 C.ar    1  UNL1        0.1454
     30 F          64.9757   83.1471   10.0170 F       1  UNL1       -0.2040
     31 C          63.2197   84.3419   11.5134 C.ar    1  UNL1        0.0951
     32 C          62.0662   85.2897   11.6585 C.ar    1  UNL1        0.1598
     33 F          61.4638   85.5366   13.0099 F       1  UNL1       -0.2026
     34 N          60.3614   86.9383   10.5973 N.pl3   1  UNL1       -0.2166
     35 H          59.7425   86.8476   11.3575 H       1  UNL1        0.1734
     36 S          60.1510   88.0241    9.5841 S.O2    1  UNL1        0.0540
     37 O          61.1431   88.8884   10.3043 O.2     1  UNL1       -0.1545
     38 O          59.1589   87.1598    8.8639 O.2     1  UNL1       -0.1545
     39 C          59.9404   89.1099    8.5709 C.3     1  UNL1        0.1724
     40 C          59.3345   89.8119    6.1438 C.3     1  UNL1        0.0019
     41 C          59.3390   88.7836    7.2359 C.3     1  UNL1        0.0273
@<TRIPOS>BOND
     1    40    41    1
     2    41    39    1
     3    39    36    1
     4    36    37    2
     5    36    38    2
     6    36    34    1
     7    34    26    1
     8    26    27   ar
     9    27    28   ar
    10    28    29   ar
    11    29    30    1
    12    29    31   ar
    13    31    24    1
    14    24    25    2
    15    24     1    1
    16     1     2   ar
    17     2     3   ar
    18     3     4   ar
    19     4     5   ar
    20     5     6   ar
    21     6     7   ar
    22     7    11    1
    23    11    12   ar
    24    12    13   ar
    25    13    14   ar
    26    14    16    1
    27    16    17    1
    28    17    18    1
    29    18    19    1
    30    19    20    1
    31    20    21    1
    32    21    22    1
    33    22    23    1
    34    14    15   ar
    35     7     8   ar
    36     8     9   ar
    37    31    32   ar
    38    32    33    1
    39    32    26   ar
    40     9     1   ar
    41     9     4    1
    42    15    11   ar
    43    23    18    1
    44    34    35    1
    45     5    10    1
@<TRIPOS>MOLECULE
*****
 41 45 0 0 0
SMALL
GASTEIGER

@<TRIPOS>ATOM
      1 C          63.5010   83.8274   13.5137 C.ar    1  UNL1        0.0611
      2 C          62.9866   82.7343   14.4028 C.ar    1  UNL1        0.1037
      3 N          62.6845   83.3321   15.7449 N.ar    1  UNL1       -0.2269
      4 C          63.0120   84.7947   15.6852 C.ar    1  UNL1        0.1407
      5 N          62.9160   85.8874   16.7084 N.ar    1  UNL1       -0.3374
      6 C          63.3246   87.2860   16.3525 C.ar    1  UNL1        0.0735
      7 C          63.8292   87.5921   14.9735 C.ar    1  UNL1        0.0202
      8 C          63.9253   86.4995   13.9504 C.ar    1  UNL1        0.0047
      9 C          63.5167   85.1008   14.3062 C.ar    1  UNL1        0.0386
     10 H          62.5848   85.6865   17.6135 H       1  UNL1        0.1674
     11 C          64.2378   88.9909   14.6177 C.ar    1  UNL1        0.0411
     12 C          63.3485   90.0470   14.0312 C.ar    1  UNL1        0.1217
     13 N          64.1685   91.2879   13.8369 N.ar    1  UNL1       -0.1676
     14 N          65.5645   90.9987   14.3033 N.ar    1  UNL1       -0.2480
     15 C          65.6074   89.5791   14.7859 C.ar    1  UNL1        0.0967
     16 C          66.7157   91.9604   14.2896 C.3     1  UNL1        0.1448
     17 C          67.6550   91.9892   13.1205 C.3     1  UNL1        0.0989
     18 N          67.3021   92.7773   11.8940 N.3     1  UNL1       -0.2667
     19 C          66.3042   93.8938   11.9814 C.3     1  UNL1        0.1047
     20 C          65.9513   94.6819   10.7549 C.3     1  UNL1        0.1595
     21 O          66.5963   94.3535    9.4411 O.3     1  UNL1       -0.3508
     22 C          67.5942   93.2371    9.3538 C.3     1  UNL1        0.1595
     23 C          67.9471   92.4489   10.5803 C.3     1  UNL1        0.1047
     24 C          63.9251   83.6740   12.0831 C.2     1  UNL1        0.2015
     25 O          65.0656   82.7652   11.7322 O.2     1  UNL1       -0.2864
     26 C          61.3682   86.1133   10.2769 C.ar    1  UNL1        0.0920
     27 C          61.7759   85.9406    8.8437 C.ar    1  UNL1        0.0204
     28 C          62.9000   85.0124    8.4903 C.ar    1  UNL1        0.0312
     29 C          63.6164   84.2569    9.5700 C.ar    1  UNL1        0.1454
     30 F          64.7405   83.3287    9.2167 F       1  UNL1       -0.2040
     31 C          63.2087   84.4296   11.0032 C.ar    1  UNL1        0.0951
     32 C          62.0846   85.3578   11.3566 C.ar    1  UNL1        0.1598
     33 F          61.6770   85.5304   12.7898 F       1  UNL1       -0.2026
     34 N          60.2442   87.0415   10.6302 N.pl3   1  UNL1       -0.2166
     35 H          59.3687   86.6765   10.8939 H       1  UNL1        0.1734
     36 S          60.4540   88.5260   10.5819 S.O2    1  UNL1        0.0540
     37 O          59.8300   88.5697    9.2185 O.2     1  UNL1       -0.1545
     38 O          61.0779   88.4823   11.9452 O.2     1  UNL1       -0.1545
     39 C          60.6638   90.0104   10.5336 C.3     1  UNL1        0.1724
     40 C          63.0614   91.0100   10.4794 C.3     1  UNL1        0.0019
     41 C          61.8166   90.5802    9.7612 C.3     1  UNL1        0.0273
@<TRIPOS>BOND
     1    40    41    1
     2    41    39    1
     3    39    36    1
     4    36    37    2
     5    36    38    2
     6    36    34    1
     7    34    26    1
     8    26    27   ar
     9    27    28   ar
    10    28    29   ar
    11    29    30    1
    12    29    31   ar
    13    31    24    1
    14    24    25    2
    15    24     1    1
    16     1     2   ar
    17     2     3   ar
    18     3     4   ar
    19     4     5   ar
    20     5     6   ar
    21     6     7   ar
    22     7    11    1
    23    11    12   ar
    24    12    13   ar
    25    13    14   ar
    26    14    16    1
    27    16    17    1
    28    17    18    1
    29    18    19    1
    30    19    20    1
    31    20    21    1
    32    21    22    1
    33    22    23    1
    34    14    15   ar
    35     7     8   ar
    36     8     9   ar
    37    31    32   ar
    38    32    33    1
    39    32    26   ar
    40     9     1   ar
    41     9     4    1
    42    15    11   ar
    43    23    18    1
    44    34    35    1
    45     5    10    1
@<TRIPOS>MOLECULE
*****
 41 45 0 0 0
SMALL
GASTEIGER

@<TRIPOS>ATOM
      1 C          60.6259   89.3753    9.8194 C.ar    1  UNL1        0.0611
      2 C          59.9743   89.8240    8.5451 C.ar    1  UNL1        0.1037
      3 N          60.0376   88.6883    7.5673 N.ar    1  UNL1       -0.2269
      4 C          60.7283   87.5377    8.2374 C.ar    1  UNL1        0.1407
      5 N          61.0731   86.1582    7.7599 N.ar    1  UNL1       -0.3374
      6 C          61.7816   85.2033    8.6744 C.ar    1  UNL1        0.0735
      7 C          62.1452   85.6279   10.0663 C.ar    1  UNL1        0.0202
      8 C          61.8004   87.0074   10.5438 C.ar    1  UNL1        0.0047
      9 C          61.0919   87.9623    9.6293 C.ar    1  UNL1        0.0386
     10 H          60.8345   85.8795    6.8463 H       1  UNL1        0.1674
     11 C          62.8537   84.6730   10.9808 C.ar    1  UNL1        0.0411
     12 C          63.7157   83.5211   10.5563 C.ar    1  UNL1        0.1217
     13 N          64.2193   82.8385   11.7934 N.ar    1  UNL1       -0.1676
     14 N          63.6685   83.5685   12.9825 N.ar    1  UNL1       -0.2480
     15 C          62.8245   84.7023   12.4802 C.ar    1  UNL1        0.0967
     16 C          63.9180   83.2250   14.4212 C.3     1  UNL1        0.1448
     17 C          64.7197   84.1524   15.2855 C.3     1  UNL1        0.0989
     18 N          64.1370   85.4648   15.7195 N.3     1  UNL1       -0.2667
     19 C          64.5147   86.7269   15.0023 C.3     1  UNL1        0.1047
     20 C          63.9320   88.0391   15.4363 C.3     1  UNL1        0.1595
     21 O          62.9716   88.0893   16.5874 O.3     1  UNL1       -0.3508
     22 C          62.5939   86.8272   17.3045 C.3     1  UNL1        0.1595
     23 C          63.1766   85.5149   16.8705 C.3     1  UNL1        0.1047
     24 C          60.7838   90.1957   11.0653 C.2     1  UNL1        0.2015
     25 O          59.5754   90.5922   11.8604 O.2     1  UNL1       -0.2864
     26 C          64.4664   91.6732   10.9914 C.ar    1  UNL1        0.0920
     27 C          64.8833   91.4670   12.4175 C.ar    1  UNL1        0.0204
     28 C          63.9336   90.8370   13.3929 C.ar    1  UNL1        0.0312
     29 C          62.5672   90.4132   12.9422 C.ar    1  UNL1        0.1454
     30 F          61.6175   89.7833   13.9175 F       1  UNL1       -0.2040
     31 C          62.1504   90.6195   11.5161 C.ar    1  UNL1        0.0951
     32 C          63.1000   91.2495   10.5408 C.ar    1  UNL1        0.1598
     33 F          62.6831   91.4556    9.1146 F       1  UNL1       -0.2026
     34 N          65.4161   92.3032   10.0161 N.pl3   1  UNL1       -0.2166
     35 H          65.5394   91.9071    9.1233 H       1  UNL1        0.1734
     36 S          66.1778   93.5367   10.4011 S.O2    1  UNL1        0.0540
     37 O          67.4593   92.7582   10.3599 O.2     1  UNL1       -0.1545
     38 O          64.8963   94.3152   10.4423 O.2     1  UNL1       -0.1545
     39 C          66.9394   94.7703   10.7861 C.3     1  UNL1        0.1724
     40 C          67.2675   95.3518    8.2752 C.3     1  UNL1        0.0019
     41 C          67.4729   95.6846    9.7233 C.3     1  UNL1        0.0273
@<TRIPOS>BOND
     1    40    41    1
     2    41    39    1
     3    39    36    1
     4    36    37    2
     5    36    38    2
     6    36    34    1
     7    34    26    1
     8    26    27   ar
     9    27    28   ar
    10    28    29   ar
    11    29    30    1
    12    29    31   ar
    13    31    24    1
    14    24    25    2
    15    24     1    1
    16     1     2   ar
    17     2     3   ar
    18     3     4   ar
    19     4     5   ar
    20     5     6   ar
    21     6     7   ar
    22     7    11    1
    23    11    12   ar
    24    12    13   ar
    25    13    14   ar
    26    14    16    1
    27    16    17    1
    28    17    18    1
    29    18    19    1
    30    19    20    1
    31    20    21    1
    32    21    22    1
    33    22    23    1
    34    14    15   ar
    35     7     8   ar
    36     8     9   ar
    37    31    32   ar
    38    32    33    1
    39    32    26   ar
    40     9     1   ar
    41     9     4    1
    42    15    11   ar
    43    23    18    1
    44    34    35    1
    45     5    10    1
@<TRIPOS>MOLECULE
*****
 41 45 0 0 0
SMALL
GASTEIGER

@<TRIPOS>ATOM
      1 C          63.7810   87.9576   14.2485 C.ar    1  UNL1        0.0611
      2 C          64.5351   87.2049   15.3043 C.ar    1  UNL1        0.1037
      3 N          64.6435   85.7746   14.8656 N.ar    1  UNL1       -0.2269
      4 C          63.9564   85.6434   13.5387 C.ar    1  UNL1        0.1407
      5 N          63.7473   84.4696   12.6284 N.ar    1  UNL1       -0.3374
      6 C          63.0051   84.6451   11.3368 C.ar    1  UNL1        0.0735
      7 C          62.4721   85.9944   10.9554 C.ar    1  UNL1        0.0202
      8 C          62.6812   87.1681   11.8657 C.ar    1  UNL1        0.0047
      9 C          63.4234   86.9926   13.1573 C.ar    1  UNL1        0.0386
     10 H          64.0972   83.5841   12.8787 H       1  UNL1        0.1674
     11 C          61.7299   86.1698    9.6637 C.ar    1  UNL1        0.0411
     12 C          61.7691   85.2361    8.4904 C.ar    1  UNL1        0.1217
     13 N          60.8817   85.7989    7.4201 N.ar    1  UNL1       -0.1676
     14 N          60.2939   87.0806    7.9319 N.ar    1  UNL1       -0.2480
     15 C          60.8182   87.3098    9.3185 C.ar    1  UNL1        0.0967
     16 C          59.3480   87.9759    7.1878 C.3     1  UNL1        0.1448
     17 C          59.4505   89.4649    7.3371 C.3     1  UNL1        0.0989
     18 N          59.1648   90.3576    6.1660 N.3     1  UNL1       -0.2667
     19 C          57.7485   90.7084    5.8183 C.3     1  UNL1        0.1047
     20 C          57.4629   91.6011    4.6472 C.3     1  UNL1        0.1595
     21 O          58.5935   92.1429    3.8238 O.3     1  UNL1       -0.3508
     22 C          60.0098   91.7920    4.1715 C.3     1  UNL1        0.1595
     23 C          60.2955   90.8993    5.3426 C.3     1  UNL1        0.1047
     24 C          63.4438   89.4189   14.2786 C.2     1  UNL1        0.2015
     25 O          62.7400   90.0019   15.4680 O.2     1  UNL1       -0.2864
     26 C          65.4462   91.9742   11.9958 C.ar    1  UNL1        0.0920
     27 C          64.5435   92.0540   10.8005 C.ar    1  UNL1        0.0204
     28 C          63.2742   91.2555   10.7646 C.ar    1  UNL1        0.0312
     29 C          62.9076   90.3771   11.9239 C.ar    1  UNL1        0.1454
     30 F          61.6384   89.5786   11.8880 F       1  UNL1       -0.2040
     31 C          63.8104   90.2973   13.1192 C.ar    1  UNL1        0.0951
     32 C          65.0796   91.0958   13.1551 C.ar    1  UNL1        0.1598
     33 F          65.9823   91.0160   14.3505 F       1  UNL1       -0.2026
     34 N          66.7155   92.7727   12.0317 N.pl3   1  UNL1       -0.2166
     35 H          67.4844   92.4516   12.5560 H       1  UNL1        0.1734
     36 S          66.8132   94.0605   11.2689 S.O2    1  UNL1        0.0540
     37 O          66.0483   94.7606   12.3528 O.2     1  UNL1       -0.1545
     38 O          67.5781   93.3605   10.1850 O.2     1  UNL1       -0.1545
     39 C          66.9109   95.3483   10.5060 C.3     1  UNL1        0.1724
     40 C          67.3361   96.5688    8.2521 C.3     1  UNL1        0.0019
     41 C          67.4959   95.3593    9.1248 C.3     1  UNL1        0.0273
@<TRIPOS>BOND
     1    40    41    1
     2    41    39    1
     3    39    36    1
     4    36    37    2
     5    36    38    2
     6    36    34    1
     7    34    26    1
     8    26    27   ar
     9    27    28   ar
    10    28    29   ar
    11    29    30    1
    12    29    31   ar
    13    31    24    1
    14    24    25    2
    15    24     1    1
    16     1     2   ar
    17     2     3   ar
    18     3     4   ar
    19     4     5   ar
    20     5     6   ar
    21     6     7   ar
    22     7    11    1
    23    11    12   ar
    24    12    13   ar
    25    13    14   ar
    26    14    16    1
    27    16    17    1
    28    17    18    1
    29    18    19    1
    30    19    20    1
    31    20    21    1
    32    21    22    1
    33    22    23    1
    34    14    15   ar
    35     7     8   ar
    36     8     9   ar
    37    31    32   ar
    38    32    33    1
    39    32    26   ar
    40     9     1   ar
    41     9     4    1
    42    15    11   ar
    43    23    18    1
    44    34    35    1
    45     5    10    1
