@<TRIPOS>MOLECULE
*****
 32 37 0 0 0
SMALL
GASTEIGER

@<TRIPOS>ATOM
      1 C          61.9795   86.1444    9.3604 C.ar    1  UNL1        0.0190
      2 C          62.5365   85.3227    8.2359 C.ar    1  UNL1        0.0032
      3 C          63.4338   84.1576    8.5314 C.ar    1  UNL1        0.0226
      4 C          63.7740   83.8141    9.9513 C.ar    1  UNL1        0.1221
      5 N          64.6257   82.7318   10.5457 N.ar    1  UNL1       -0.1285
      6 N          64.5950   82.8846   12.0376 N.ar    1  UNL1       -0.0599
      7 N          63.7243   84.0613   12.3652 N.ar    1  UNL1       -0.2141
      8 C          63.2170   84.6358   11.0758 C.ar    1  UNL1        0.1034
      9 C          62.3197   85.8009   10.7803 C.ar    1  UNL1        0.0223
     10 C          63.4153   84.5736   13.7407 C.2     1  UNL1        0.0681
     11 C          62.8086   83.6589   14.7630 C.2     1  UNL1        0.0153
     12 C          62.4996   84.1713   16.1385 C.2     1  UNL1        0.0041
     13 C          62.7973   85.5984   16.4917 C.2     1  UNL1        0.0367
     14 C          62.6036   86.3806   17.7569 C.2     1  UNL1        0.1233
     15 N          63.0905   87.7788   17.5164 N.2     1  UNL1       -0.1467
     16 N          63.5852   87.8607   16.1027 N.2     1  UNL1       -0.1519
     17 C          63.4040   86.5131   15.4694 C.2     1  UNL1        0.0880
     18 C          63.7130   86.0008   14.0939 C.3     1  UNL1        0.0934
     19 N          60.7824   88.4491    9.9932 N.ar    1  UNL1       -0.2448
     20 N          59.8421   89.3836    9.2914 N.ar    1  UNL1       -0.1673
     21 C          59.5607   88.8216    7.9294 C.ar    1  UNL1        0.1217
     22 C          60.3271   87.5398    7.7895 C.ar    1  UNL1        0.0412
     23 C          61.0822   87.3096    9.0650 C.ar    1  UNL1        0.0799
     24 C          61.3273   88.6236   11.3798 C.3     1  UNL1        0.1727
     25 C          64.5247   91.6893   12.1717 C.ar    1  UNL1        0.0875
     26 C          63.9491   91.5446   10.7942 C.ar    1  UNL1        0.0131
     27 C          62.8832   90.5227   10.5302 C.ar    1  UNL1        0.0174
     28 C          62.3931   89.6454   11.6438 C.ar    1  UNL1        0.0837
     29 N          62.9687   89.7901   13.0214 N.ar    1  UNL1       -0.2454
     30 C          64.0345   90.8120   13.2854 C.ar    1  UNL1        0.1087
     31 N          66.6565   93.7331   12.6999 N.1     1  UNL1       -0.1908
     32 C          65.5906   92.7112   12.4358 C.1     1  UNL1        0.1020
@<TRIPOS>BOND
     1    31    32    3
     2    32    25    1
     3    25    26   ar
     4    26    27   ar
     5    27    28   ar
     6    28    24    1
     7    24    19    1
     8    19    20   ar
     9    20    21   ar
    10    21    22   ar
    11    22    23   ar
    12    23     1    1
    13     1     2   ar
    14     2     3   ar
    15     3     4   ar
    16     4     5   ar
    17     5     6   ar
    18     6     7   ar
    19     7    10    1
    20    10    11    2
    21    11    12    1
    22    12    13    2
    23    13    14    1
    24    14    15    2
    25    15    16    1
    26    16    17    2
    27    17    18    1
    28     7     8   ar
    29     8     9   ar
    30    28    29   ar
    31    29    30   ar
    32    30    25   ar
    33    23    19   ar
    34     9     1   ar
    35     8     4   ar
    36    18    10    1
    37    17    13    1
@<TRIPOS>MOLECULE
*****
 32 37 0 0 0
SMALL
GASTEIGER

@<TRIPOS>ATOM
      1 C          63.9614   89.4148   14.6759 C.ar    1  UNL1        0.0190
      2 C          64.9561   90.4953   14.9810 C.ar    1  UNL1        0.0032
      3 C          65.2830   91.5284   13.9438 C.ar    1  UNL1        0.0226
      4 C          64.6153   91.4809   12.6014 C.ar    1  UNL1        0.1221
      5 N          64.7357   92.3560   11.3891 N.ar    1  UNL1       -0.1285
      6 N          63.8153   91.8163   10.3347 N.ar    1  UNL1       -0.0599
      7 N          63.1263   90.6077   10.8954 N.ar    1  UNL1       -0.2141
      8 C          63.6207   90.4004   12.2963 C.ar    1  UNL1        0.1034
      9 C          63.2937   89.3674   13.3335 C.ar    1  UNL1        0.0223
     10 C          62.1195   89.7559   10.1807 C.2     1  UNL1        0.0681
     11 C          60.7686   90.3142    9.8441 C.2     1  UNL1        0.0153
     12 C          59.7618   89.4624    9.1293 C.2     1  UNL1        0.0041
     13 C          60.1059   88.0522    8.7512 C.2     1  UNL1        0.0367
     14 C          59.3247   86.9827    8.0472 C.2     1  UNL1        0.1233
     15 N          60.1927   85.7634    7.9486 N.2     1  UNL1       -0.1467
     16 N          61.5104   86.0793    8.5918 N.2     1  UNL1       -0.1519
     17 C          61.4568   87.4939    9.0879 C.2     1  UNL1        0.0880
     18 C          62.4636   88.3457    9.8026 C.3     1  UNL1        0.0934
     19 N          63.9492   86.9175   15.6291 N.ar    1  UNL1       -0.2448
     20 N          63.4446   86.2623   16.8805 N.ar    1  UNL1       -0.1673
     21 C          62.8179   87.3216   17.7380 C.ar    1  UNL1        0.1217
     22 C          62.9352   88.6315   17.0165 C.ar    1  UNL1        0.0412
     23 C          63.6344   88.3817   15.7132 C.ar    1  UNL1        0.0799
     24 C          64.6462   86.2293   14.4931 C.3     1  UNL1        0.1727
     25 C          63.2805   82.1571   13.1508 C.ar    1  UNL1        0.0875
     26 C          63.0682   83.3490   12.2652 C.ar    1  UNL1        0.0131
     27 C          63.5235   84.7064   12.7127 C.ar    1  UNL1        0.0174
     28 C          64.1910   84.8719   14.0457 C.ar    1  UNL1        0.0837
     29 N          64.4032   83.6801   14.9314 N.ar    1  UNL1       -0.2454
     30 C          63.9480   82.3227   14.4839 C.ar    1  UNL1        0.1087
     31 N          62.3700   79.4422   12.2560 N.1     1  UNL1       -0.1908
     32 C          62.8253   80.7996   12.7035 C.1     1  UNL1        0.1020
@<TRIPOS>BOND
     1    31    32    3
     2    32    25    1
     3    25    26   ar
     4    26    27   ar
     5    27    28   ar
     6    28    24    1
     7    24    19    1
     8    19    20   ar
     9    20    21   ar
    10    21    22   ar
    11    22    23   ar
    12    23     1    1
    13     1     2   ar
    14     2     3   ar
    15     3     4   ar
    16     4     5   ar
    17     5     6   ar
    18     6     7   ar
    19     7    10    1
    20    10    11    2
    21    11    12    1
    22    12    13    2
    23    13    14    1
    24    14    15    2
    25    15    16    1
    26    16    17    2
    27    17    18    1
    28     7     8   ar
    29     8     9   ar
    30    28    29   ar
    31    29    30   ar
    32    30    25   ar
    33    23    19   ar
    34     9     1   ar
    35     8     4   ar
    36    18    10    1
    37    17    13    1
@<TRIPOS>MOLECULE
*****
 32 37 0 0 0
SMALL
GASTEIGER

@<TRIPOS>ATOM
      1 C          63.3144   90.0205   13.1369 C.ar    1  UNL1        0.0190
      2 C          63.2397   89.7915   14.6174 C.ar    1  UNL1        0.0032
      3 C          64.0851   90.6111   15.5466 C.ar    1  UNL1        0.0226
      4 C          65.0052   91.6597   14.9953 C.ar    1  UNL1        0.1221
      5 N          65.9516   92.6148   15.6604 N.ar    1  UNL1       -0.1285
      6 N          66.6111   93.4340   14.5909 N.ar    1  UNL1       -0.0599
      7 N          66.0723   92.9853   13.2648 N.ar    1  UNL1       -0.2141
      8 C          65.0798   91.8887   13.5148 C.ar    1  UNL1        0.1034
      9 C          64.2344   91.0691   12.5856 C.ar    1  UNL1        0.0223
     10 C          66.4583   93.5364   11.9242 C.2     1  UNL1        0.0681
     11 C          67.1802   92.6688   10.9362 C.2     1  UNL1        0.0153
     12 C          67.5662   93.2199    9.5956 C.2     1  UNL1        0.0041
     13 C          67.2302   94.6386    9.2428 C.2     1  UNL1        0.0367
     14 C          67.4807   95.4520    8.0077 C.2     1  UNL1        0.1233
     15 N          66.9135   96.8224    8.2323 N.2     1  UNL1       -0.1467
     16 N          66.3125   96.8558    9.6062 N.2     1  UNL1       -0.1519
     17 C          66.5082   95.5061   10.2308 C.2     1  UNL1        0.0880
     18 C          66.1222   94.9550   11.5714 C.3     1  UNL1        0.0934
     19 N          62.5695   87.7187   12.0002 N.ar    1  UNL1       -0.2448
     20 N          61.5373   87.3212   10.9870 N.ar    1  UNL1       -0.1673
     21 C          60.7988   88.5579   10.5682 C.ar    1  UNL1        0.1217
     22 C          61.3746   89.7195   11.3225 C.ar    1  UNL1        0.0412
     23 C          62.4689   89.2009   12.2076 C.ar    1  UNL1        0.0799
     24 C          63.5331   86.7959   12.6857 C.3     1  UNL1        0.1727
     25 C          62.4558   82.4703   13.3007 C.ar    1  UNL1        0.0875
     26 C          62.8182   82.9657   11.9320 C.ar    1  UNL1        0.0131
     27 C          63.1773   84.4075   11.7271 C.ar    1  UNL1        0.0174
     28 C          63.1740   85.3540   12.8908 C.ar    1  UNL1        0.0837
     29 N          62.8115   84.8586   14.2594 N.ar    1  UNL1       -0.2454
     30 C          62.4524   83.4167   14.4644 C.ar    1  UNL1        0.1087
     31 N          61.7376   79.5865   13.7109 N.1     1  UNL1       -0.1908
     32 C          62.0967   81.0283   13.5057 C.1     1  UNL1        0.1020
@<TRIPOS>BOND
     1    31    32    3
     2    32    25    1
     3    25    26   ar
     4    26    27   ar
     5    27    28   ar
     6    28    24    1
     7    24    19    1
     8    19    20   ar
     9    20    21   ar
    10    21    22   ar
    11    22    23   ar
    12    23     1    1
    13     1     2   ar
    14     2     3   ar
    15     3     4   ar
    16     4     5   ar
    17     5     6   ar
    18     6     7   ar
    19     7    10    1
    20    10    11    2
    21    11    12    1
    22    12    13    2
    23    13    14    1
    24    14    15    2
    25    15    16    1
    26    16    17    2
    27    17    18    1
    28     7     8   ar
    29     8     9   ar
    30    28    29   ar
    31    29    30   ar
    32    30    25   ar
    33    23    19   ar
    34     9     1   ar
    35     8     4   ar
    36    18    10    1
    37    17    13    1
@<TRIPOS>MOLECULE
*****
 32 37 0 0 0
SMALL
GASTEIGER

@<TRIPOS>ATOM
      1 C          63.7584   89.7304   14.6413 C.ar    1  UNL1        0.0190
      2 C          63.5478   90.4571   15.9365 C.ar    1  UNL1        0.0032
      3 C          63.2332   89.6880   17.1853 C.ar    1  UNL1        0.0226
      4 C          63.1293   88.1924   17.1390 C.ar    1  UNL1        0.1221
      5 N          62.8344   87.1734   18.1996 N.ar    1  UNL1       -0.1285
      6 N          62.8628   85.8170   17.5598 N.ar    1  UNL1       -0.0599
      7 N          63.1752   85.9977   16.1038 N.ar    1  UNL1       -0.2141
      8 C          63.3399   87.4657   15.8438 C.ar    1  UNL1        0.1034
      9 C          63.6545   88.2347   14.5949 C.ar    1  UNL1        0.0223
     10 C          63.3009   84.9025   15.0865 C.2     1  UNL1        0.0681
     11 C          64.0811   85.1350   13.8267 C.2     1  UNL1        0.0153
     12 C          64.2067   84.0399   12.8094 C.2     1  UNL1        0.0041
     13 C          63.5522   82.7122   13.0519 C.2     1  UNL1        0.0367
     14 C          63.5029   81.4538   12.2372 C.2     1  UNL1        0.1233
     15 N          62.6922   80.4435   12.9935 N.2     1  UNL1       -0.1467
     16 N          62.2405   81.0775   14.2756 N.2     1  UNL1       -0.1519
     17 C          62.7720   82.4797   14.3117 C.2     1  UNL1        0.0880
     18 C          62.6463   83.5748   15.3290 C.3     1  UNL1        0.0934
     19 N          63.1762   90.6483   12.1992 N.ar    1  UNL1       -0.2448
     20 N          63.8885   91.4954   11.1868 N.ar    1  UNL1       -0.1673
     21 C          65.2255   91.8702   11.7543 C.ar    1  UNL1        0.1217
     22 C          65.3395   91.2547   13.1174 C.ar    1  UNL1        0.0412
     23 C          64.0730   90.4995   13.3924 C.ar    1  UNL1        0.0799
     24 C          61.8075   90.0542   12.0454 C.3     1  UNL1        0.1727
     25 C          61.0371   86.9731    8.8575 C.ar    1  UNL1        0.0875
     26 C          62.0343   86.6958    9.9432 C.ar    1  UNL1        0.0131
     27 C          62.2911   87.7229   11.0058 C.ar    1  UNL1        0.0174
     28 C          61.5506   89.0272   10.9828 C.ar    1  UNL1        0.0837
     29 N          60.5535   89.3045    9.8971 N.ar    1  UNL1       -0.2454
     30 C          60.2967   88.2774    8.8345 C.ar    1  UNL1        0.1087
     31 N          60.5233   84.9191    6.7321 N.1     1  UNL1       -0.1908
     32 C          60.7802   85.9460    7.7948 C.1     1  UNL1        0.1020
@<TRIPOS>BOND
     1    31    32    3
     2    32    25    1
     3    25    26   ar
     4    26    27   ar
     5    27    28   ar
     6    28    24    1
     7    24    19    1
     8    19    20   ar
     9    20    21   ar
    10    21    22   ar
    11    22    23   ar
    12    23     1    1
    13     1     2   ar
    14     2     3   ar
    15     3     4   ar
    16     4     5   ar
    17     5     6   ar
    18     6     7   ar
    19     7    10    1
    20    10    11    2
    21    11    12    1
    22    12    13    2
    23    13    14    1
    24    14    15    2
    25    15    16    1
    26    16    17    2
    27    17    18    1
    28     7     8   ar
    29     8     9   ar
    30    28    29   ar
    31    29    30   ar
    32    30    25   ar
    33    23    19   ar
    34     9     1   ar
    35     8     4   ar
    36    18    10    1
    37    17    13    1
@<TRIPOS>MOLECULE
*****
 32 37 0 0 0
SMALL
GASTEIGER

@<TRIPOS>ATOM
      1 C          64.0764   90.6324   13.0976 C.ar    1  UNL1        0.0190
      2 C          63.5826   91.4857   11.9672 C.ar    1  UNL1        0.0032
      3 C          62.8436   90.8593   10.8220 C.ar    1  UNL1        0.0226
      4 C          62.5985   89.3796   10.8072 C.ar    1  UNL1        0.1221
      5 N          61.9055   88.4868    9.8209 N.ar    1  UNL1       -0.1285
      6 N          61.9711   87.0817   10.3418 N.ar    1  UNL1       -0.0599
      7 N          62.7046   87.1060   11.6500 N.ar    1  UNL1       -0.2141
      8 C          63.0924   88.5262   11.9376 C.ar    1  UNL1        0.1034
      9 C          63.8313   89.1526   13.0828 C.ar    1  UNL1        0.0223
     10 C          62.9987   85.9187   12.5181 C.2     1  UNL1        0.0681
     11 C          63.8056   86.0873   13.7713 C.2     1  UNL1        0.0153
     12 C          64.0997   84.9000   14.6394 C.2     1  UNL1        0.0041
     13 C          63.5870   83.5439   14.2544 C.2     1  UNL1        0.0367
     14 C          63.7163   82.1995   14.9069 C.2     1  UNL1        0.1233
     15 N          62.9893   81.2000   14.0570 N.2     1  UNL1       -0.1467
     16 N          62.4107   81.9266   12.8792 N.2     1  UNL1       -0.1519
     17 C          62.7801   83.3753   13.0012 C.2     1  UNL1        0.0880
     18 C          62.4860   84.5627   12.1331 C.3     1  UNL1        0.0934
     19 N          66.2365   91.7385   14.2183 N.ar    1  UNL1       -0.2448
     20 N          66.5625   92.2916   15.5740 N.ar    1  UNL1       -0.1673
     21 C          65.3429   92.1537   16.4364 C.ar    1  UNL1        0.1217
     22 C          64.2632   91.5154   15.6137 C.ar    1  UNL1        0.0412
     23 C          64.8155   91.2588   14.2429 C.ar    1  UNL1        0.0799
     24 C          67.1680   91.6760   13.0443 C.3     1  UNL1        0.1727
     25 C          66.9112   94.7839    9.8001 C.ar    1  UNL1        0.0875
     26 C          67.4828   93.4303    9.4985 C.ar    1  UNL1        0.0131
     27 C          67.5684   92.3943   10.5799 C.ar    1  UNL1        0.0174
     28 C          67.0824   92.7120   11.9630 C.ar    1  UNL1        0.0837
     29 N          66.5108   94.0656   12.2646 N.ar    1  UNL1       -0.2454
     30 C          66.4252   95.1015   11.1832 C.ar    1  UNL1        0.1087
     31 N          66.7401   96.8560    7.6374 N.1     1  UNL1       -0.1908
     32 C          66.8256   95.8199    8.7188 C.1     1  UNL1        0.1020
@<TRIPOS>BOND
     1    31    32    3
     2    32    25    1
     3    25    26   ar
     4    26    27   ar
     5    27    28   ar
     6    28    24    1
     7    24    19    1
     8    19    20   ar
     9    20    21   ar
    10    21    22   ar
    11    22    23   ar
    12    23     1    1
    13     1     2   ar
    14     2     3   ar
    15     3     4   ar
    16     4     5   ar
    17     5     6   ar
    18     6     7   ar
    19     7    10    1
    20    10    11    2
    21    11    12    1
    22    12    13    2
    23    13    14    1
    24    14    15    2
    25    15    16    1
    26    16    17    2
    27    17    18    1
    28     7     8   ar
    29     8     9   ar
    30    28    29   ar
    31    29    30   ar
    32    30    25   ar
    33    23    19   ar
    34     9     1   ar
    35     8     4   ar
    36    18    10    1
    37    17    13    1
@<TRIPOS>MOLECULE
*****
 32 37 0 0 0
SMALL
GASTEIGER

@<TRIPOS>ATOM
      1 C          63.8473   86.9205   15.0394 C.ar    1  UNL1        0.0190
      2 C          63.2004   86.9279   16.3927 C.ar    1  UNL1        0.0032
      3 C          62.9738   88.2264   17.1086 C.ar    1  UNL1        0.0226
      4 C          63.3941   89.5175   16.4711 C.ar    1  UNL1        0.1221
      5 N          63.3006   90.9418   16.9325 N.ar    1  UNL1       -0.1285
      6 N          63.8897   91.8146   15.8643 N.ar    1  UNL1       -0.0599
      7 N          64.3473   90.9298   14.7428 N.ar    1  UNL1       -0.2141
      8 C          64.0410   89.5102   15.1179 C.ar    1  UNL1        0.1034
      9 C          64.2676   88.2117   14.4020 C.ar    1  UNL1        0.0223
     10 C          64.9971   91.3848   13.4697 C.2     1  UNL1        0.0681
     11 C          64.1546   91.7089   12.2718 C.2     1  UNL1        0.0153
     12 C          64.8044   92.1638   10.9987 C.2     1  UNL1        0.0041
     13 C          66.2968   92.2948   10.9235 C.2     1  UNL1        0.0367
     14 C          67.2126   92.7166    9.8131 C.2     1  UNL1        0.1233
     15 N          68.6213   92.6533   10.3247 N.2     1  UNL1       -0.1467
     16 N          68.5759   92.1924   11.7514 N.2     1  UNL1       -0.1519
     17 C          67.1393   91.9708   12.1215 C.2     1  UNL1        0.0880
     18 C          66.4895   91.5158   13.3946 C.3     1  UNL1        0.0934
     19 N          63.5044   85.2396   12.9894 N.ar    1  UNL1       -0.2448
     20 N          63.9882   83.8592   12.6573 N.ar    1  UNL1       -0.1673
     21 C          64.8567   83.3884   13.7861 C.ar    1  UNL1        0.1217
     22 C          64.9096   84.4779   14.8158 C.ar    1  UNL1        0.0412
     23 C          64.0738   85.6220   14.3235 C.ar    1  UNL1        0.0799
     24 C          62.6085   86.0887   12.1372 C.3     1  UNL1        0.1727
     25 C          61.9997   85.0657    7.7975 C.ar    1  UNL1        0.0875
     26 C          61.0723   86.0281    8.4785 C.ar    1  UNL1        0.0131
     27 C          61.2753   86.3691    9.9250 C.ar    1  UNL1        0.0174
     28 C          62.4056   85.7476   10.6906 C.ar    1  UNL1        0.0837
     29 N          63.3329   84.7851   10.0097 N.ar    1  UNL1       -0.2454
     30 C          63.1300   84.4442    8.5632 C.ar    1  UNL1        0.1087
     31 N          61.5940   84.3835    4.9044 N.1     1  UNL1       -0.1908
     32 C          61.7968   84.7246    6.3509 C.1     1  UNL1        0.1020
@<TRIPOS>BOND
     1    31    32    3
     2    32    25    1
     3    25    26   ar
     4    26    27   ar
     5    27    28   ar
     6    28    24    1
     7    24    19    1
     8    19    20   ar
     9    20    21   ar
    10    21    22   ar
    11    22    23   ar
    12    23     1    1
    13     1     2   ar
    14     2     3   ar
    15     3     4   ar
    16     4     5   ar
    17     5     6   ar
    18     6     7   ar
    19     7    10    1
    20    10    11    2
    21    11    12    1
    22    12    13    2
    23    13    14    1
    24    14    15    2
    25    15    16    1
    26    16    17    2
    27    17    18    1
    28     7     8   ar
    29     8     9   ar
    30    28    29   ar
    31    29    30   ar
    32    30    25   ar
    33    23    19   ar
    34     9     1   ar
    35     8     4   ar
    36    18    10    1
    37    17    13    1
@<TRIPOS>MOLECULE
*****
 32 37 0 0 0
SMALL
GASTEIGER

@<TRIPOS>ATOM
      1 C          62.1374   89.5973   10.1960 C.ar    1  UNL1        0.0190
      2 C          62.6803   90.7995    9.4819 C.ar    1  UNL1        0.0032
      3 C          63.6297   91.7239   10.1848 C.ar    1  UNL1        0.0226
      4 C          64.0362   91.4462   11.6017 C.ar    1  UNL1        0.1221
      5 N          64.9486   92.1728   12.5449 N.ar    1  UNL1       -0.1285
      6 N          64.9695   91.4197   13.8419 N.ar    1  UNL1       -0.0599
      7 N          64.0701   90.2276   13.7003 N.ar    1  UNL1       -0.2141
      8 C          63.4933   90.2440   12.3157 C.ar    1  UNL1        0.1034
      9 C          62.5439   89.3196   11.6129 C.ar    1  UNL1        0.0223
     10 C          63.7956   89.1996   14.7576 C.2     1  UNL1        0.0681
     11 C          63.2496   89.6209   16.0896 C.2     1  UNL1        0.0153
     12 C          62.9751   88.5929   17.1469 C.2     1  UNL1        0.0041
     13 C          63.2467   87.1435   16.8722 C.2     1  UNL1        0.0367
     14 C          63.0764   85.9134   17.7135 C.2     1  UNL1        0.1233
     15 N          63.5171   84.7318   16.9014 N.2     1  UNL1       -0.1467
     16 N          63.9598   85.2316   15.5582 N.2     1  UNL1       -0.1519
     17 C          63.7927   86.7222   15.5402 C.2     1  UNL1        0.0880
     18 C          64.0672   87.7502   14.4829 C.3     1  UNL1        0.0934
     19 N          61.4916   87.2761    9.0383 N.ar    1  UNL1       -0.2448
     20 N          60.2595   86.7228    8.3859 N.ar    1  UNL1       -0.1673
     21 C          59.1942   87.7776    8.4375 C.ar    1  UNL1        0.1217
     22 C          59.7680   88.9828    9.1219 C.ar    1  UNL1        0.0412
     23 C          61.1879   88.6729    9.4932 C.ar    1  UNL1        0.0799
     24 C          62.7982   86.5587    9.2064 C.3     1  UNL1        0.1727
     25 C          63.1335   83.1483   12.1230 C.ar    1  UNL1        0.0875
     26 C          62.4951   84.4377   12.5469 C.ar    1  UNL1        0.0131
     27 C          62.3833   85.5745   11.5747 C.ar    1  UNL1        0.0174
     28 C          62.9100   85.4218   10.1785 C.ar    1  UNL1        0.0837
     29 N          63.5484   84.1324    9.7545 N.ar    1  UNL1       -0.2454
     30 C          63.6602   82.9956   10.7268 C.ar    1  UNL1        0.1087
     31 N          63.3570   80.8745   14.0673 N.1     1  UNL1       -0.1908
     32 C          63.2453   82.0114   13.0951 C.1     1  UNL1        0.1020
@<TRIPOS>BOND
     1    31    32    3
     2    32    25    1
     3    25    26   ar
     4    26    27   ar
     5    27    28   ar
     6    28    24    1
     7    24    19    1
     8    19    20   ar
     9    20    21   ar
    10    21    22   ar
    11    22    23   ar
    12    23     1    1
    13     1     2   ar
    14     2     3   ar
    15     3     4   ar
    16     4     5   ar
    17     5     6   ar
    18     6     7   ar
    19     7    10    1
    20    10    11    2
    21    11    12    1
    22    12    13    2
    23    13    14    1
    24    14    15    2
    25    15    16    1
    26    16    17    2
    27    17    18    1
    28     7     8   ar
    29     8     9   ar
    30    28    29   ar
    31    29    30   ar
    32    30    25   ar
    33    23    19   ar
    34     9     1   ar
    35     8     4   ar
    36    18    10    1
    37    17    13    1
@<TRIPOS>MOLECULE
*****
 32 37 0 0 0
SMALL
GASTEIGER

@<TRIPOS>ATOM
      1 C          62.7325   90.4722   11.8232 C.ar    1  UNL1        0.0190
      2 C          61.5605   91.3724   11.5670 C.ar    1  UNL1        0.0032
      3 C          60.3474   90.8420   10.8619 C.ar    1  UNL1        0.0226
      4 C          60.3065   89.4113   10.4132 C.ar    1  UNL1        0.1221
      5 N          59.2556   88.6126    9.7004 N.ar    1  UNL1       -0.1285
      6 N          59.7782   87.2188    9.5162 N.ar    1  UNL1       -0.0599
      7 N          61.1521   87.1560   10.1151 N.ar    1  UNL1       -0.2141
      8 C          61.4785   88.5110   10.6695 C.ar    1  UNL1        0.1034
      9 C          62.6916   89.0414   11.3745 C.ar    1  UNL1        0.0223
     10 C          62.0431   85.9499   10.1531 C.2     1  UNL1        0.0681
     11 C          62.7839   85.5256    8.9198 C.2     1  UNL1        0.0153
     12 C          63.6749   84.3195    8.9577 C.2     1  UNL1        0.0041
     13 C          63.8251   83.5376   10.2290 C.2     1  UNL1        0.0367
     14 C          64.6257   82.3150   10.5667 C.2     1  UNL1        0.1233
     15 N          64.3796   81.9836   12.0088 N.2     1  UNL1       -0.1467
     16 N          63.4270   83.0014   12.5623 N.2     1  UNL1       -0.1519
     17 C          63.0842   83.9619   11.4623 C.2     1  UNL1        0.0880
     18 C          62.1932   85.1680   11.4243 C.3     1  UNL1        0.0934
     19 N          64.2689   90.8241   13.9822 N.ar    1  UNL1       -0.2448
     20 N          65.5715   91.5158   14.2557 N.ar    1  UNL1       -0.1673
     21 C          66.0533   92.1217   12.9709 C.ar    1  UNL1        0.1217
     22 C          65.0485   91.8046   11.9033 C.ar    1  UNL1        0.0412
     23 C          63.9457   91.0026   12.5283 C.ar    1  UNL1        0.0799
     24 C          63.4359   90.0840   14.9862 C.3     1  UNL1        0.1727
     25 C          63.8959   85.6314   15.4469 C.ar    1  UNL1        0.0875
     26 C          64.3820   86.3107   14.2010 C.ar    1  UNL1        0.0131
     27 C          64.2286   87.7949   14.0474 C.ar    1  UNL1        0.0174
     28 C          63.5892   88.5998   15.1398 C.ar    1  UNL1        0.0837
     29 N          63.1031   87.9205   16.3857 N.ar    1  UNL1       -0.2454
     30 C          63.2565   86.4363   16.5393 C.ar    1  UNL1        0.1087
     31 N          64.2024   82.6629   15.7541 N.1     1  UNL1       -0.1908
     32 C          64.0492   84.1471   15.6005 C.1     1  UNL1        0.1020
@<TRIPOS>BOND
     1    31    32    3
     2    32    25    1
     3    25    26   ar
     4    26    27   ar
     5    27    28   ar
     6    28    24    1
     7    24    19    1
     8    19    20   ar
     9    20    21   ar
    10    21    22   ar
    11    22    23   ar
    12    23     1    1
    13     1     2   ar
    14     2     3   ar
    15     3     4   ar
    16     4     5   ar
    17     5     6   ar
    18     6     7   ar
    19     7    10    1
    20    10    11    2
    21    11    12    1
    22    12    13    2
    23    13    14    1
    24    14    15    2
    25    15    16    1
    26    16    17    2
    27    17    18    1
    28     7     8   ar
    29     8     9   ar
    30    28    29   ar
    31    29    30   ar
    32    30    25   ar
    33    23    19   ar
    34     9     1   ar
    35     8     4   ar
    36    18    10    1
    37    17    13    1
@<TRIPOS>MOLECULE
*****
 32 37 0 0 0
SMALL
GASTEIGER

@<TRIPOS>ATOM
      1 C          63.9476   86.8971   14.7404 C.ar    1  UNL1        0.0190
      2 C          64.7364   85.9056   15.5434 C.ar    1  UNL1        0.0032
      3 C          65.0097   84.5391   14.9885 C.ar    1  UNL1        0.0226
      4 C          64.4943   84.1640   13.6307 C.ar    1  UNL1        0.1221
      5 N          64.6052   82.9013   12.8286 N.ar    1  UNL1       -0.1285
      6 N          63.8849   83.1124   11.5300 N.ar    1  UNL1       -0.0599
      7 N          63.3289   84.5056   11.5294 N.ar    1  UNL1       -0.2141
      8 C          63.7055   85.1555   12.8277 C.ar    1  UNL1        0.1034
      9 C          63.4322   86.5220   13.3826 C.ar    1  UNL1        0.0223
     10 C          62.5356   85.1378   10.4245 C.2     1  UNL1        0.0681
     11 C          62.8837   84.8533    8.9935 C.2     1  UNL1        0.0153
     12 C          62.0903   85.4855    7.8886 C.2     1  UNL1        0.0041
     13 C          60.9488   86.4023    8.2146 C.2     1  UNL1        0.0367
     14 C          59.9940   87.1650    7.3448 C.2     1  UNL1        0.1233
     15 N          59.0557   87.9209    8.2382 N.2     1  UNL1       -0.1467
     16 N          59.4306   87.6254    9.6602 N.2     1  UNL1       -0.1519
     17 C          60.6007   86.6869    9.6456 C.2     1  UNL1        0.0880
     18 C          61.3940   86.0546   10.7505 C.3     1  UNL1        0.0934
     19 N          63.7063   89.5505   14.5251 N.ar    1  UNL1       -0.2448
     20 N          63.3727   90.6655   15.4714 N.ar    1  UNL1       -0.1673
     21 C          63.1344   90.0677   16.8264 C.ar    1  UNL1        0.1217
     22 C          63.3208   88.5833   16.7175 C.ar    1  UNL1        0.0412
     23 C          63.6742   88.2637   15.2952 C.ar    1  UNL1        0.0799
     24 C          64.0174   89.6967   13.0650 C.3     1  UNL1        0.1727
     25 C          65.7398   93.5506   11.5061 C.ar    1  UNL1        0.0875
     26 C          64.7650   92.7732   10.6722 C.ar    1  UNL1        0.0131
     27 C          64.1909   91.4886   11.1919 C.ar    1  UNL1        0.0174
     28 C          64.5916   90.9813   12.5454 C.ar    1  UNL1        0.0837
     29 N          65.5664   91.7587   13.3793 N.ar    1  UNL1       -0.2454
     30 C          66.1405   93.0433   12.8596 C.ar    1  UNL1        0.1087
     31 N          66.8882   96.1200   10.4668 N.1     1  UNL1       -0.1908
     32 C          66.3141   94.8353   10.9865 C.1     1  UNL1        0.1020
@<TRIPOS>BOND
     1    31    32    3
     2    32    25    1
     3    25    26   ar
     4    26    27   ar
     5    27    28   ar
     6    28    24    1
     7    24    19    1
     8    19    20   ar
     9    20    21   ar
    10    21    22   ar
    11    22    23   ar
    12    23     1    1
    13     1     2   ar
    14     2     3   ar
    15     3     4   ar
    16     4     5   ar
    17     5     6   ar
    18     6     7   ar
    19     7    10    1
    20    10    11    2
    21    11    12    1
    22    12    13    2
    23    13    14    1
    24    14    15    2
    25    15    16    1
    26    16    17    2
    27    17    18    1
    28     7     8   ar
    29     8     9   ar
    30    28    29   ar
    31    29    30   ar
    32    30    25   ar
    33    23    19   ar
    34     9     1   ar
    35     8     4   ar
    36    18    10    1
    37    17    13    1
