@<TRIPOS>MOLECULE
*****
 28 31 0 0 0
SMALL
GASTEIGER

@<TRIPOS>ATOM
      1 C          64.7725   90.4755   14.4069 C.ar    1  UNL1        0.0516
      2 C          63.9638   90.8317   13.1947 C.ar    1  UNL1        0.0147
      3 C          64.4498   91.8946   12.2547 C.ar    1  UNL1        0.0010
      4 C          65.7446   92.6016   12.5267 C.ar    1  UNL1       -0.0014
      5 C          66.5533   92.2455   13.7388 C.ar    1  UNL1        0.0010
      6 C          66.0672   91.1824   14.6788 C.ar    1  UNL1        0.0147
      7 C          66.2306   93.6646   11.5866 C.2     1  UNL1        0.0158
      8 C          65.8142   95.0915   11.7881 C.2     1  UNL1        0.0487
      9 C          66.3001   96.1545   10.8481 C.2     1  UNL1        0.2355
     10 N          67.2026   95.7907    9.7064 N.2     1  UNL1       -0.0325
     11 C          67.6190   94.3638    9.5049 C.2     1  UNL1        0.3799
     12 N          68.4934   93.7091    8.4769 N.2     1  UNL1       -0.0106
     13 C          68.5478   92.2414    8.7817 C.2     1  UNL1        0.3351
     14 N          67.7070   91.9890    9.9980 N.2     1  UNL1       -0.2103
     15 C          67.1330   93.3008   10.4450 C.3     1  UNL1        0.2404
     16 O          64.4694   87.6492   13.4476 O.2     1  UNL1       -0.2522
     17 C          64.1350   87.9993   14.8673 C.2     1  UNL1        0.3082
     18 N          63.6490   86.9363   15.8073 N.am    1  UNL1       -0.2681
     19 N          64.2866   89.4125   15.3469 N.am    1  UNL1       -0.2681
     20 H          63.4295   87.1661   16.7391 H       1  UNL1        0.1564
     21 H          64.0670   89.6423   16.2787 H       1  UNL1        0.1564
     22 C          63.4974   85.5231   15.3277 C.ar    1  UNL1        0.0516
     23 C          64.5981   84.8762   14.5403 C.ar    1  UNL1        0.0156
     24 C          64.4466   83.4631   14.0607 C.ar    1  UNL1        0.0127
     25 C          63.1944   82.6968   14.3685 C.ar    1  UNL1        0.0578
     26 CL         63.0428   81.2837   13.8889 Cl      1  UNL1       -0.0822
     27 C          62.0936   83.3437   15.1559 C.ar    1  UNL1        0.0127
     28 C          62.2452   84.7569   15.6355 C.ar    1  UNL1        0.0156
@<TRIPOS>BOND
     1    16    17    2
     2    17    18   am
     3    18    22    1
     4    22    23   ar
     5    23    24   ar
     6    24    25   ar
     7    25    26    1
     8    25    27   ar
     9    27    28   ar
    10    17    19   am
    11    19     1    1
    12     1     2   ar
    13     2     3   ar
    14     3     4   ar
    15     4     7    1
    16     7     8    2
    17     8     9    1
    18     9    10    2
    19    10    11    1
    20    11    12    2
    21    12    13    1
    22    13    14    2
    23    14    15    1
    24     4     5   ar
    25     5     6   ar
    26    28    22   ar
    27     6     1   ar
    28    15     7    1
    29    15    11    1
    30    18    20    1
    31    19    21    1
@<TRIPOS>MOLECULE
*****
 28 31 0 0 0
SMALL
GASTEIGER

@<TRIPOS>ATOM
      1 C          64.1492   90.1978   13.2264 C.ar    1  UNL1        0.0516
      2 C          64.6141   89.2146   14.2595 C.ar    1  UNL1        0.0147
      3 C          64.2695   87.7615   14.1206 C.ar    1  UNL1        0.0010
      4 C          63.4600   87.2913   12.9485 C.ar    1  UNL1       -0.0014
      5 C          62.9951   88.2744   11.9154 C.ar    1  UNL1        0.0010
      6 C          63.3397   89.7277   12.0544 C.ar    1  UNL1        0.0147
      7 C          63.1154   85.8380   12.8096 C.2     1  UNL1        0.0158
      8 C          62.8974   85.2456   11.4489 C.2     1  UNL1        0.0487
      9 C          62.5528   83.7925   11.3100 C.2     1  UNL1        0.2355
     10 N          62.4263   82.9315   12.5318 N.2     1  UNL1       -0.0325
     11 C          62.6444   83.5238   13.8925 C.2     1  UNL1        0.3799
     12 N          62.5882   82.9272   15.2676 N.2     1  UNL1       -0.0106
     13 C          62.8980   84.0118   16.2564 C.2     1  UNL1        0.3351
     14 N          63.1457   85.2787   15.4924 N.2     1  UNL1       -0.2103
     15 C          62.9889   84.9771   14.0314 C.3     1  UNL1        0.2404
     16 O          65.2907   91.6984   10.8930 O.2     1  UNL1       -0.2522
     17 C          65.0645   92.4014   12.1986 C.2     1  UNL1        0.3082
     18 N          65.4091   93.8546   12.3375 N.am    1  UNL1       -0.2681
     19 N          64.4937   91.6510   13.3653 N.am    1  UNL1       -0.2681
     20 H          65.2606   94.3159   13.1945 H       1  UNL1        0.1564
     21 H          64.3453   92.1124   14.2223 H       1  UNL1        0.1564
     22 C          65.9799   94.6050   11.1708 C.ar    1  UNL1        0.0516
     23 C          67.1024   94.0101   10.3732 C.ar    1  UNL1        0.0156
     24 C          67.6732   94.7605    9.2065 C.ar    1  UNL1        0.0127
     25 C          67.1216   96.1056    8.8374 C.ar    1  UNL1        0.0578
     26 CL         67.6923   96.8559    7.6708 Cl      1  UNL1       -0.0822
     27 C          65.9990   96.7004    9.6350 C.ar    1  UNL1        0.0127
     28 C          65.4282   95.9500   10.8017 C.ar    1  UNL1        0.0156
@<TRIPOS>BOND
     1    16    17    2
     2    17    18   am
     3    18    22    1
     4    22    23   ar
     5    23    24   ar
     6    24    25   ar
     7    25    26    1
     8    25    27   ar
     9    27    28   ar
    10    17    19   am
    11    19     1    1
    12     1     2   ar
    13     2     3   ar
    14     3     4   ar
    15     4     7    1
    16     7     8    2
    17     8     9    1
    18     9    10    2
    19    10    11    1
    20    11    12    2
    21    12    13    1
    22    13    14    2
    23    14    15    1
    24     4     5   ar
    25     5     6   ar
    26    28    22   ar
    27     6     1   ar
    28    15     7    1
    29    15    11    1
    30    18    20    1
    31    19    21    1
@<TRIPOS>MOLECULE
*****
 28 31 0 0 0
SMALL
GASTEIGER

@<TRIPOS>ATOM
      1 C          64.6855   90.7600   13.7223 C.ar    1  UNL1        0.0516
      2 C          63.8250   90.1564   12.6520 C.ar    1  UNL1        0.0147
      3 C          63.4874   88.6956   12.6962 C.ar    1  UNL1        0.0010
      4 C          64.0102   87.8383   13.8106 C.ar    1  UNL1       -0.0014
      5 C          64.8707   88.4419   14.8808 C.ar    1  UNL1        0.0010
      6 C          65.2083   89.9027   14.8366 C.ar    1  UNL1        0.0147
      7 C          63.6726   86.3774   13.8547 C.2     1  UNL1        0.0158
      8 C          63.8910   85.5950   15.1157 C.2     1  UNL1        0.0487
      9 C          63.5534   84.1342   15.1598 C.2     1  UNL1        0.2355
     10 N          62.9973   83.4557   13.9430 N.2     1  UNL1       -0.0325
     11 C          62.7789   84.2382   12.6820 C.2     1  UNL1        0.3799
     12 N          62.2494   83.8439   11.3352 N.2     1  UNL1       -0.0106
     13 C          62.2597   85.0611   10.4586 C.2     1  UNL1        0.3351
     14 N          62.7957   86.2077   11.2637 N.2     1  UNL1       -0.2103
     15 C          63.1166   85.6991   12.6379 C.3     1  UNL1        0.2404
     16 O          65.5187   92.0294   11.1349 O.2     1  UNL1       -0.2522
     17 C          65.4397   92.8556   12.3844 C.2     1  UNL1        0.3082
     18 N          65.7773   94.3163   12.3402 N.am    1  UNL1       -0.2681
     19 N          65.0231   92.2208   13.6781 N.am    1  UNL1       -0.2681
     20 H          65.7254   94.8585   13.1604 H       1  UNL1        0.1564
     21 H          64.9712   92.7630   14.4982 H       1  UNL1        0.1564
     22 C          66.1939   94.9511   11.0466 C.ar    1  UNL1        0.0516
     23 C          65.4779   96.1698   10.5444 C.ar    1  UNL1        0.0156
     24 C          65.8945   96.8046    9.2508 C.ar    1  UNL1        0.0127
     25 C          67.0270   96.2207    8.4593 C.ar    1  UNL1        0.0578
     26 CL         67.4437   96.8554    7.1657 Cl      1  UNL1       -0.0822
     27 C          67.7431   95.0020    8.9615 C.ar    1  UNL1        0.0127
     28 C          67.3265   94.3672   10.2552 C.ar    1  UNL1        0.0156
@<TRIPOS>BOND
     1    16    17    2
     2    17    18   am
     3    18    22    1
     4    22    23   ar
     5    23    24   ar
     6    24    25   ar
     7    25    26    1
     8    25    27   ar
     9    27    28   ar
    10    17    19   am
    11    19     1    1
    12     1     2   ar
    13     2     3   ar
    14     3     4   ar
    15     4     7    1
    16     7     8    2
    17     8     9    1
    18     9    10    2
    19    10    11    1
    20    11    12    2
    21    12    13    1
    22    13    14    2
    23    14    15    1
    24     4     5   ar
    25     5     6   ar
    26    28    22   ar
    27     6     1   ar
    28    15     7    1
    29    15    11    1
    30    18    20    1
    31    19    21    1
@<TRIPOS>MOLECULE
*****
 28 31 0 0 0
SMALL
GASTEIGER

@<TRIPOS>ATOM
      1 C          62.7000   88.8583   11.4537 C.ar    1  UNL1        0.0516
      2 C          62.8031   89.8081   10.2972 C.ar    1  UNL1        0.0147
      3 C          63.5982   91.0726   10.4337 C.ar    1  UNL1        0.0010
      4 C          64.2903   91.3875   11.7268 C.ar    1  UNL1       -0.0014
      5 C          64.1872   90.4378   12.8833 C.ar    1  UNL1        0.0010
      6 C          63.3921   89.1733   12.7467 C.ar    1  UNL1        0.0147
      7 C          65.0854   92.6521   11.8633 C.2     1  UNL1        0.0158
      8 C          65.1204   93.6414   10.7363 C.2     1  UNL1        0.0487
      9 C          65.9154   94.9059   10.8728 C.2     1  UNL1        0.2355
     10 N          66.6757   95.1812   12.1362 N.2     1  UNL1       -0.0325
     11 C          66.6408   94.1919   13.2632 C.2     1  UNL1        0.3799
     12 N          67.2847   94.1907   14.6179 N.2     1  UNL1       -0.0106
     13 C          66.8876   92.9253   15.3187 C.2     1  UNL1        0.3351
     14 N          65.9982   92.1445   14.3971 N.2     1  UNL1       -0.2103
     15 C          65.8456   92.9274   13.1267 C.3     1  UNL1        0.2404
     16 O          63.7483   86.2954   12.6079 O.2     1  UNL1       -0.2522
     17 C          62.4290   86.3123   11.8943 C.2     1  UNL1        0.3082
     18 N          61.6339   85.0478   11.7578 N.am    1  UNL1       -0.2681
     19 N          61.9049   87.5938   11.3172 N.am    1  UNL1       -0.2681
     20 H          60.7681   85.0589   11.2894 H       1  UNL1        0.1564
     21 H          61.0390   87.6050   10.8488 H       1  UNL1        0.1564
     22 C          62.1580   83.7662   12.3349 C.ar    1  UNL1        0.0516
     23 C          62.6999   82.7015   11.4278 C.ar    1  UNL1        0.0156
     24 C          63.2240   81.4200   12.0048 C.ar    1  UNL1        0.0127
     25 C          63.2062   81.2031   13.4890 C.ar    1  UNL1        0.0578
     26 CL         63.7303   79.9217   14.0660 Cl      1  UNL1       -0.0822
     27 C          62.6644   82.2679   14.3961 C.ar    1  UNL1        0.0127
     28 C          62.1403   83.5494   13.8190 C.ar    1  UNL1        0.0156
@<TRIPOS>BOND
     1    16    17    2
     2    17    18   am
     3    18    22    1
     4    22    23   ar
     5    23    24   ar
     6    24    25   ar
     7    25    26    1
     8    25    27   ar
     9    27    28   ar
    10    17    19   am
    11    19     1    1
    12     1     2   ar
    13     2     3   ar
    14     3     4   ar
    15     4     7    1
    16     7     8    2
    17     8     9    1
    18     9    10    2
    19    10    11    1
    20    11    12    2
    21    12    13    1
    22    13    14    2
    23    14    15    1
    24     4     5   ar
    25     5     6   ar
    26    28    22   ar
    27     6     1   ar
    28    15     7    1
    29    15    11    1
    30    18    20    1
    31    19    21    1
@<TRIPOS>MOLECULE
*****
 28 31 0 0 0
SMALL
GASTEIGER

@<TRIPOS>ATOM
      1 C          62.7766   87.5632   12.3784 C.ar    1  UNL1        0.0516
      2 C          62.1288   86.9829   11.1562 C.ar    1  UNL1        0.0147
      3 C          62.1994   85.5069   10.8991 C.ar    1  UNL1        0.0010
      4 C          62.9178   84.6109   11.8641 C.ar    1  UNL1       -0.0014
      5 C          63.5656   85.1911   13.0863 C.ar    1  UNL1        0.0010
      6 C          63.4950   86.6673   13.3434 C.ar    1  UNL1        0.0147
      7 C          62.9883   83.1348   11.6070 C.2     1  UNL1        0.0158
      8 C          63.6051   82.6230   10.3391 C.2     1  UNL1        0.0487
      9 C          63.6756   81.1470   10.0819 C.2     1  UNL1        0.2355
     10 N          63.1294   80.1826   11.0927 N.2     1  UNL1       -0.0325
     11 C          62.5126   80.6943   12.3607 C.2     1  UNL1        0.3799
     12 N          61.8958   79.9897   13.5324 N.2     1  UNL1       -0.0106
     13 C          61.4441   81.0303   14.5137 C.2     1  UNL1        0.3351
     14 N          61.7817   82.3781   13.9485 N.2     1  UNL1       -0.2103
     15 C          62.4421   82.1705   12.6178 C.3     1  UNL1        0.2404
     16 O          65.0979   88.9772   13.6481 O.2     1  UNL1       -0.2522
     17 C          63.8668   89.7463   13.2703 C.2     1  UNL1        0.3082
     18 N          63.7962   91.2223   13.5274 N.am    1  UNL1       -0.2681
     19 N          62.7061   89.0392   12.6354 N.am    1  UNL1       -0.2681
     20 H          62.9881   91.7271   13.2795 H       1  UNL1        0.1564
     21 H          61.8980   89.5440   12.3875 H       1  UNL1        0.1564
     22 C          64.9569   91.9294   14.1623 C.ar    1  UNL1        0.0516
     23 C          65.9430   92.6691   13.3076 C.ar    1  UNL1        0.0156
     24 C          67.1036   93.3761   13.9424 C.ar    1  UNL1        0.0127
     25 C          67.2781   93.3436   15.4319 C.ar    1  UNL1        0.0578
     26 CL         68.4386   94.0506   16.0667 Cl      1  UNL1       -0.0822
     27 C          66.2919   92.6039   16.2866 C.ar    1  UNL1        0.0127
     28 C          65.1312   91.8968   15.6517 C.ar    1  UNL1        0.0156
@<TRIPOS>BOND
     1    16    17    2
     2    17    18   am
     3    18    22    1
     4    22    23   ar
     5    23    24   ar
     6    24    25   ar
     7    25    26    1
     8    25    27   ar
     9    27    28   ar
    10    17    19   am
    11    19     1    1
    12     1     2   ar
    13     2     3   ar
    14     3     4   ar
    15     4     7    1
    16     7     8    2
    17     8     9    1
    18     9    10    2
    19    10    11    1
    20    11    12    2
    21    12    13    1
    22    13    14    2
    23    14    15    1
    24     4     5   ar
    25     5     6   ar
    26    28    22   ar
    27     6     1   ar
    28    15     7    1
    29    15    11    1
    30    18    20    1
    31    19    21    1
@<TRIPOS>MOLECULE
*****
 28 31 0 0 0
SMALL
GASTEIGER

@<TRIPOS>ATOM
      1 C          72.4266   77.1309   14.2101 C.ar    1  UNL1        0.0516
      2 C          71.0312   76.7158   14.5717 C.ar    1  UNL1        0.0147
      3 C          70.7676   75.3261   15.0705 C.ar    1  UNL1        0.0010
      4 C          71.8994   74.3512   15.2078 C.ar    1  UNL1       -0.0014
      5 C          73.2947   74.7661   14.8462 C.ar    1  UNL1        0.0010
      6 C          73.5583   76.1560   14.3473 C.ar    1  UNL1        0.0147
      7 C          71.6357   72.9613   15.7067 C.2     1  UNL1        0.0158
      8 C          71.7043   71.7993   14.7607 C.2     1  UNL1        0.0487
      9 C          71.4406   70.4095   15.2595 C.2     1  UNL1        0.2355
     10 N          71.1084   70.1817   16.7044 N.2     1  UNL1       -0.0325
     11 C          71.0399   71.3437   17.6504 C.2     1  UNL1        0.3799
     12 N          70.7384   71.4271   19.1174 N.2     1  UNL1       -0.0106
     13 C          70.8157   72.8685   19.5252 C.2     1  UNL1        0.3351
     14 N          71.1650   73.6759   18.3103 N.2     1  UNL1       -0.2103
     15 C          71.3035   72.7335   17.1516 C.3     1  UNL1        0.2404
     16 O          71.9348   77.8090   11.3294 O.2     1  UNL1       -0.2522
     17 C          72.4443   78.8598   12.2709 C.2     1  UNL1        0.3082
     18 N          72.7079   80.2495   11.7720 N.am    1  UNL1       -0.2681
     19 N          72.6902   78.5206   13.7112 N.am    1  UNL1       -0.2681
     20 H          73.0423   80.9392   12.3899 H       1  UNL1        0.1564
     21 H          73.0246   79.2102   14.3292 H       1  UNL1        0.1564
     22 C          72.4620   80.5887   10.3316 C.ar    1  UNL1        0.0516
     23 C          72.1031   81.9921    9.9424 C.ar    1  UNL1        0.0156
     24 C          71.8572   82.3313    8.5021 C.ar    1  UNL1        0.0127
     25 C          71.9702   81.2671    7.4511 C.ar    1  UNL1        0.0578
     26 CL         71.7243   81.6062    6.0108 Cl      1  UNL1       -0.0822
     27 C          72.3291   79.8636    7.8404 C.ar    1  UNL1        0.0127
     28 C          72.5750   79.5244    9.2807 C.ar    1  UNL1        0.0156
@<TRIPOS>BOND
     1    16    17    2
     2    17    18   am
     3    18    22    1
     4    22    23   ar
     5    23    24   ar
     6    24    25   ar
     7    25    26    1
     8    25    27   ar
     9    27    28   ar
    10    17    19   am
    11    19     1    1
    12     1     2   ar
    13     2     3   ar
    14     3     4   ar
    15     4     7    1
    16     7     8    2
    17     8     9    1
    18     9    10    2
    19    10    11    1
    20    11    12    2
    21    12    13    1
    22    13    14    2
    23    14    15    1
    24     4     5   ar
    25     5     6   ar
    26    28    22   ar
    27     6     1   ar
    28    15     7    1
    29    15    11    1
    30    18    20    1
    31    19    21    1
@<TRIPOS>MOLECULE
*****
 28 31 0 0 0
SMALL
GASTEIGER

@<TRIPOS>ATOM
      1 C          62.9944   88.5743   11.9638 C.ar    1  UNL1        0.0516
      2 C          63.7316   88.5920   13.2701 C.ar    1  UNL1        0.0147
      3 C          64.5156   89.8057   13.6724 C.ar    1  UNL1        0.0010
      4 C          64.5625   91.0020   12.7685 C.ar    1  UNL1       -0.0014
      5 C          63.8254   90.9843   11.4623 C.ar    1  UNL1        0.0010
      6 C          63.0413   89.7705   11.0599 C.ar    1  UNL1        0.0147
      7 C          65.3466   92.2158   13.1709 C.2     1  UNL1        0.0158
      8 C          65.8076   92.3745   14.5895 C.2     1  UNL1        0.0487
      9 C          66.5916   93.5882   14.9919 C.2     1  UNL1        0.2355
     10 N          66.9147   94.6433   13.9758 N.2     1  UNL1       -0.0325
     11 C          66.4537   94.4846   12.5572 C.2     1  UNL1        0.3799
     12 N          66.6203   95.3519   11.3448 N.2     1  UNL1       -0.0106
     13 C          65.9391   94.6741   10.1930 C.2     1  UNL1        0.3351
     14 N          65.3516   93.3879   10.6936 N.2     1  UNL1       -0.2103
     15 C          65.6697   93.2708   12.1548 C.3     1  UNL1        0.2404
     16 O          63.7189   85.8839   13.0760 O.2     1  UNL1       -0.2522
     17 C          62.5726   86.0153   12.1175 C.2     1  UNL1        0.3082
     18 N          61.7886   84.8015   11.7151 N.am    1  UNL1       -0.2681
     19 N          62.2104   87.3605   11.5614 N.am    1  UNL1       -0.2681
     20 H          61.0362   84.8878   11.0860 H       1  UNL1        0.1564
     21 H          61.4580   87.4468   10.9323 H       1  UNL1        0.1564
     22 C          62.1508   83.4563   12.2712 C.ar    1  UNL1        0.0516
     23 C          62.6543   82.3781   11.3580 C.ar    1  UNL1        0.0156
     24 C          63.0165   81.0329   11.9140 C.ar    1  UNL1        0.0127
     25 C          62.8753   80.7658   13.3833 C.ar    1  UNL1        0.0578
     26 CL         63.2375   79.4207   13.9393 Cl      1  UNL1       -0.0822
     27 C          62.3718   81.8441   14.2966 C.ar    1  UNL1        0.0127
     28 C          62.0095   83.1894   13.7405 C.ar    1  UNL1        0.0156
@<TRIPOS>BOND
     1    16    17    2
     2    17    18   am
     3    18    22    1
     4    22    23   ar
     5    23    24   ar
     6    24    25   ar
     7    25    26    1
     8    25    27   ar
     9    27    28   ar
    10    17    19   am
    11    19     1    1
    12     1     2   ar
    13     2     3   ar
    14     3     4   ar
    15     4     7    1
    16     7     8    2
    17     8     9    1
    18     9    10    2
    19    10    11    1
    20    11    12    2
    21    12    13    1
    22    13    14    2
    23    14    15    1
    24     4     5   ar
    25     5     6   ar
    26    28    22   ar
    27     6     1   ar
    28    15     7    1
    29    15    11    1
    30    18    20    1
    31    19    21    1
@<TRIPOS>MOLECULE
*****
 28 31 0 0 0
SMALL
GASTEIGER

@<TRIPOS>ATOM
      1 C          60.1404   92.4801    3.1181 C.ar    1  UNL1        0.0516
      2 C          61.6312   92.3180    3.1565 C.ar    1  UNL1        0.0147
      3 C          62.4627   92.7471    1.9843 C.ar    1  UNL1        0.0010
      4 C          61.8036   93.3384    0.7734 C.ar    1  UNL1       -0.0014
      5 C          60.3129   93.5005    0.7349 C.ar    1  UNL1        0.0010
      6 C          59.4813   93.0713    1.9073 C.ar    1  UNL1        0.0147
      7 C          62.6353   93.7675   -0.3989 C.2     1  UNL1        0.0158
      8 C          62.3533   93.2101   -1.7626 C.2     1  UNL1        0.0487
      9 C          63.1848   93.6392   -2.9348 C.2     1  UNL1        0.2355
     10 N          64.2986   94.6257   -2.7434 N.2     1  UNL1       -0.0325
     11 C          64.5806   95.1830   -1.3797 C.2     1  UNL1        0.3799
     12 N          65.6040   96.1633   -0.8880 N.2     1  UNL1       -0.0106
     13 C          65.4048   96.3400    0.5882 C.2     1  UNL1        0.3351
     14 N          64.2583   95.4690    1.0088 N.2     1  UNL1       -0.2103
     15 C          63.7489   94.7539   -0.2074 C.3     1  UNL1        0.2404
     16 O          61.1220   90.3067    4.9381 O.2     1  UNL1       -0.2522
     17 C          59.7996   90.9643    5.2004 C.2     1  UNL1        0.3082
     18 N          58.9681   90.5352    6.3726 N.am    1  UNL1       -0.2681
     19 N          59.3088   92.0510    4.2903 N.am    1  UNL1       -0.2681
     20 H          58.1001   90.9668    6.5447 H       1  UNL1        0.1564
     21 H          58.4409   92.4826    4.4624 H       1  UNL1        0.1564
     22 C          59.4588   89.4484    7.2827 C.ar    1  UNL1        0.0516
     23 C          60.3325   89.7885    8.4537 C.ar    1  UNL1        0.0156
     24 C          60.8233   88.7018    9.3638 C.ar    1  UNL1        0.0127
     25 C          60.4404   87.2752    9.1030 C.ar    1  UNL1        0.0578
     26 CL         60.9312   86.1885   10.0130 Cl      1  UNL1       -0.0822
     27 C          59.5668   86.9351    7.9319 C.ar    1  UNL1        0.0127
     28 C          59.0760   88.0218    7.0218 C.ar    1  UNL1        0.0156
@<TRIPOS>BOND
     1    16    17    2
     2    17    18   am
     3    18    22    1
     4    22    23   ar
     5    23    24   ar
     6    24    25   ar
     7    25    26    1
     8    25    27   ar
     9    27    28   ar
    10    17    19   am
    11    19     1    1
    12     1     2   ar
    13     2     3   ar
    14     3     4   ar
    15     4     7    1
    16     7     8    2
    17     8     9    1
    18     9    10    2
    19    10    11    1
    20    11    12    2
    21    12    13    1
    22    13    14    2
    23    14    15    1
    24     4     5   ar
    25     5     6   ar
    26    28    22   ar
    27     6     1   ar
    28    15     7    1
    29    15    11    1
    30    18    20    1
    31    19    21    1
@<TRIPOS>MOLECULE
*****
 28 31 0 0 0
SMALL
GASTEIGER

@<TRIPOS>ATOM
      1 C          63.8763   87.2274   15.1189 C.ar    1  UNL1        0.0516
      2 C          63.7792   86.9282   13.6522 C.ar    1  UNL1        0.0147
      3 C          63.4221   85.5464   13.1906 C.ar    1  UNL1        0.0010
      4 C          63.1620   84.4637   14.1957 C.ar    1  UNL1       -0.0014
      5 C          63.2590   84.7628   15.6624 C.ar    1  UNL1        0.0010
      6 C          63.6162   86.1447   16.1239 C.ar    1  UNL1        0.0147
      7 C          62.8049   83.0819   13.7341 C.2     1  UNL1        0.0158
      8 C          62.0353   82.1647   14.6377 C.2     1  UNL1        0.0487
      9 C          61.6782   80.7830   14.1762 C.2     1  UNL1        0.2355
     10 N          62.0906   80.3183   12.8108 N.2     1  UNL1       -0.0325
     11 C          62.8602   81.2354   11.9072 C.2     1  UNL1        0.3799
     12 N          63.3988   81.0569   10.5187 N.2     1  UNL1       -0.0106
     13 C          64.0889   82.3283   10.1222 C.2     1  UNL1        0.3351
     14 N          63.9767   83.2927   11.2656 N.2     1  UNL1       -0.2103
     15 C          63.2173   82.6172   12.3688 C.3     1  UNL1        0.2404
     16 O          64.6656   89.3196   13.1191 O.2     1  UNL1       -0.2522
     17 C          64.6281   89.6553   14.5806 C.2     1  UNL1        0.3082
     18 N          64.9852   91.0371   15.0421 N.am    1  UNL1       -0.2681
     19 N          64.2334   88.6091   15.5805 N.am    1  UNL1       -0.2681
     20 H          64.9605   91.2573   16.0014 H       1  UNL1        0.1564
     21 H          64.2087   88.8294   16.5397 H       1  UNL1        0.1564
     22 C          65.3799   92.0833   14.0422 C.ar    1  UNL1        0.0516
     23 C          66.2565   93.2267   14.4596 C.ar    1  UNL1        0.0156
     24 C          66.6512   94.2729   13.4598 C.ar    1  UNL1        0.0127
     25 C          66.1693   94.1757   12.0427 C.ar    1  UNL1        0.0578
     26 CL         66.5640   95.2219   11.0428 Cl      1  UNL1       -0.0822
     27 C          65.2927   93.0323   11.6253 C.ar    1  UNL1        0.0127
     28 C          64.8980   91.9860   12.6252 C.ar    1  UNL1        0.0156
@<TRIPOS>BOND
     1    16    17    2
     2    17    18   am
     3    18    22    1
     4    22    23   ar
     5    23    24   ar
     6    24    25   ar
     7    25    26    1
     8    25    27   ar
     9    27    28   ar
    10    17    19   am
    11    19     1    1
    12     1     2   ar
    13     2     3   ar
    14     3     4   ar
    15     4     7    1
    16     7     8    2
    17     8     9    1
    18     9    10    2
    19    10    11    1
    20    11    12    2
    21    12    13    1
    22    13    14    2
    23    14    15    1
    24     4     5   ar
    25     5     6   ar
    26    28    22   ar
    27     6     1   ar
    28    15     7    1
    29    15    11    1
    30    18    20    1
    31    19    21    1
