@<TRIPOS>MOLECULE
*****
 32 36 0 0 0
SMALL
GASTEIGER

@<TRIPOS>ATOM
      1 O          63.9088   83.4233   15.3756 O.2     1  UNL1       -0.2522
      2 C          63.4901   84.2673   14.2083 C.2     1  UNL1        0.3078
      3 N          62.7443   83.6475   13.0639 N.am    1  UNL1       -0.2674
      4 N          63.8172   85.7310   14.1854 N.am    1  UNL1       -0.2605
      5 C          64.5630   86.3507   15.3298 C.3     1  UNL1        0.1165
      6 C          64.8901   87.8145   15.3070 C.3     1  UNL1        0.1167
      7 N          64.4713   88.6584   14.1397 N.pl3   1  UNL1       -0.2585
      8 C          63.7255   88.0386   12.9953 C.3     1  UNL1        0.1167
      9 C          63.3984   86.5749   13.0182 C.3     1  UNL1        0.1165
     10 H          62.4694   84.2014   12.2978 H       1  UNL1        0.1564
     11 C          62.4171   82.1837   13.0867 C.ar    1  UNL1        0.0622
     12 C          61.5708   81.6215   14.1901 C.ar    1  UNL1        0.0156
     13 C          61.2437   80.1578   14.2129 C.ar    1  UNL1        0.0013
     14 C          61.7630   79.2563   13.1323 C.ar    1  UNL1        0.0009
     15 C          62.6093   79.8185   12.0289 C.ar    1  UNL1        0.0126
     16 C          62.9364   81.2822   12.0061 C.ar    1  UNL1        0.0711
     17 CL         63.7828   81.8446   10.9027 Cl      1  UNL1       -0.0810
     18 C          64.7984   90.1221   14.1169 C.ar    1  UNL1        0.3186
     19 N          65.2322   90.9100   12.9163 N.ar    1  UNL1       -0.1721
     20 C          65.4510   92.3298   13.3481 C.ar    1  UNL1        0.2224
     21 N          65.1525   92.4194   14.8153 N.ar    1  UNL1       -0.0524
     22 O          64.7492   91.0550   15.2905 O.2     1  UNL1       -0.3163
     23 C          65.8911   93.4613   12.4671 C.ar    1  UNL1        0.1203
     24 C          66.0854   94.8311   13.0466 C.ar    1  UNL1        0.0224
     25 C          66.5254   95.9626   12.1657 C.ar    1  UNL1        0.0031
     26 C          66.7712   95.7243   10.7052 C.ar    1  UNL1        0.0177
     27 C          67.2112   96.8558    9.8243 C.ar    1  UNL1        0.0015
     28 C          67.4570   96.6175    8.3639 C.ar    1  UNL1        0.0001
     29 C          67.2627   95.2476    7.7844 C.ar    1  UNL1        0.0015
     30 C          66.8226   94.1161    8.6653 C.ar    1  UNL1        0.0191
     31 C          66.5769   94.3545   10.1257 C.ar    1  UNL1        0.0814
     32 N          66.1368   93.2230   11.0067 N.ar    1  UNL1       -0.2422
@<TRIPOS>BOND
     1     1     2    2
     2     2     3   am
     3     3    11    1
     4    11    12   ar
     5    12    13   ar
     6    13    14   ar
     7    14    15   ar
     8    15    16   ar
     9    16    17    1
    10     2     4   am
    11     4     5    1
    12     5     6    1
    13     6     7    1
    14     7    18    1
    15    18    19   ar
    16    19    20   ar
    17    20    23    1
    18    23    24   ar
    19    24    25   ar
    20    25    26   ar
    21    26    27   ar
    22    27    28   ar
    23    28    29   ar
    24    29    30   ar
    25    30    31   ar
    26    31    32   ar
    27    20    21   ar
    28    21    22   ar
    29     7     8    1
    30     8     9    1
    31    16    11   ar
    32     9     4    1
    33    22    18   ar
    34    32    23   ar
    35    31    26   ar
    36     3    10    1
@<TRIPOS>MOLECULE
*****
 32 36 0 0 0
SMALL
GASTEIGER

@<TRIPOS>ATOM
      1 O          69.8860   72.9891   16.6255 O.2     1  UNL1       -0.2522
      2 C          71.0759   73.0844   15.7170 C.2     1  UNL1        0.3078
      3 N          71.9927   71.9082   15.5560 N.am    1  UNL1       -0.2674
      4 N          71.3489   74.3560   14.9697 N.am    1  UNL1       -0.2605
      5 C          70.4320   75.5322   15.1307 C.3     1  UNL1        0.1165
      6 C          70.7050   76.8037   14.3833 C.3     1  UNL1        0.1167
      7 N          71.8949   76.8991   13.4749 N.pl3   1  UNL1       -0.2585
      8 C          72.8117   75.7229   13.3139 C.3     1  UNL1        0.1167
      9 C          72.5387   74.4513   14.0612 C.3     1  UNL1        0.1165
     10 H          72.7736   71.9708   14.9598 H       1  UNL1        0.1564
     11 C          71.7197   70.6366   16.3034 C.ar    1  UNL1        0.0622
     12 C          71.0003   70.6795   17.6190 C.ar    1  UNL1        0.0156
     13 C          70.7274   69.4079   18.3663 C.ar    1  UNL1        0.0013
     14 C          71.1738   68.0934   17.7981 C.ar    1  UNL1        0.0009
     15 C          71.8931   68.0505   16.4826 C.ar    1  UNL1        0.0126
     16 C          72.1661   69.3221   15.7352 C.ar    1  UNL1        0.0711
     17 CL         72.8855   69.2792   14.4196 Cl      1  UNL1       -0.0810
     18 C          72.1679   78.1706   12.7275 C.ar    1  UNL1        0.3186
     19 N          72.0403   78.3673   11.2458 N.ar    1  UNL1       -0.1721
     20 C          72.4100   79.7870   10.9332 C.ar    1  UNL1        0.2224
     21 N          72.7661   80.4678   12.2215 N.ar    1  UNL1       -0.0524
     22 O          72.6165   79.4688   13.3304 O.2     1  UNL1       -0.3163
     23 C          72.4216   80.4155    9.5713 C.ar    1  UNL1        0.1203
     24 C          71.9854   81.8403    9.3991 C.ar    1  UNL1        0.0224
     25 C          71.9969   82.4689    8.0372 C.ar    1  UNL1        0.0031
     26 C          72.4448   81.6726    6.8474 C.ar    1  UNL1        0.0177
     27 C          72.4563   82.3012    5.4856 C.ar    1  UNL1        0.0015
     28 C          72.9042   81.5050    4.2959 C.ar    1  UNL1        0.0001
     29 C          73.3404   80.0802    4.4680 C.ar    1  UNL1        0.0015
     30 C          73.3289   79.4516    5.8299 C.ar    1  UNL1        0.0191
     31 C          72.8810   80.2478    7.0196 C.ar    1  UNL1        0.0814
     32 N          72.8695   79.6193    8.3816 N.ar    1  UNL1       -0.2422
@<TRIPOS>BOND
     1     1     2    2
     2     2     3   am
     3     3    11    1
     4    11    12   ar
     5    12    13   ar
     6    13    14   ar
     7    14    15   ar
     8    15    16   ar
     9    16    17    1
    10     2     4   am
    11     4     5    1
    12     5     6    1
    13     6     7    1
    14     7    18    1
    15    18    19   ar
    16    19    20   ar
    17    20    23    1
    18    23    24   ar
    19    24    25   ar
    20    25    26   ar
    21    26    27   ar
    22    27    28   ar
    23    28    29   ar
    24    29    30   ar
    25    30    31   ar
    26    31    32   ar
    27    20    21   ar
    28    21    22   ar
    29     7     8    1
    30     8     9    1
    31    16    11   ar
    32     9     4    1
    33    22    18   ar
    34    32    23   ar
    35    31    26   ar
    36     3    10    1
@<TRIPOS>MOLECULE
*****
 32 36 0 0 0
SMALL
GASTEIGER

@<TRIPOS>ATOM
      1 O          62.7657   87.0186   12.3875 O.2     1  UNL1       -0.2522
      2 C          62.1293   86.3749   11.1914 C.2     1  UNL1        0.3078
      3 N          62.0569   84.8798   11.0938 N.am    1  UNL1       -0.2674
      4 N          61.5653   87.2263   10.0928 N.am    1  UNL1       -0.2605
      5 C          61.6376   88.7214   10.1903 C.3     1  UNL1        0.1165
      6 C          61.0736   89.5728    9.0917 C.3     1  UNL1        0.1167
      7 N          60.4372   88.9291    7.8956 N.pl3   1  UNL1       -0.2585
      8 C          60.3649   87.4341    7.7980 C.3     1  UNL1        0.1167
      9 C          60.9289   86.5827    8.8966 C.3     1  UNL1        0.1165
     10 H          61.6393   84.4574   10.3087 H       1  UNL1        0.1564
     11 C          62.6210   84.0283   12.1925 C.ar    1  UNL1        0.0622
     12 C          62.0942   84.1620   13.5905 C.ar    1  UNL1        0.0156
     13 C          62.6582   83.3105   14.6891 C.ar    1  UNL1        0.0013
     14 C          63.7491   82.3254   14.3896 C.ar    1  UNL1        0.0009
     15 C          64.2758   82.1918   12.9915 C.ar    1  UNL1        0.0126
     16 C          63.7118   83.0432   11.8929 C.ar    1  UNL1        0.0711
     17 CL         64.2386   82.9096   10.4948 Cl      1  UNL1       -0.0810
     18 C          59.8732   89.7806    6.7970 C.ar    1  UNL1        0.3186
     19 N          60.6572   90.4376    5.6998 N.ar    1  UNL1       -0.1721
     20 C          59.6946   91.1875    4.8274 C.ar    1  UNL1        0.2224
     21 N          58.3158   90.9940    5.3853 N.ar    1  UNL1       -0.0524
     22 O          58.4261   90.1244    6.6026 O.2     1  UNL1       -0.3163
     23 C          60.0488   91.9901    3.6107 C.ar    1  UNL1        0.1203
     24 C          58.9639   92.5376    2.7313 C.ar    1  UNL1        0.0224
     25 C          59.3180   93.3402    1.5146 C.ar    1  UNL1        0.0031
     26 C          60.7572   93.5953    1.1772 C.ar    1  UNL1        0.0177
     27 C          61.1113   94.3979   -0.0395 C.ar    1  UNL1        0.0015
     28 C          62.5504   94.6530   -0.3769 C.ar    1  UNL1        0.0001
     29 C          63.6353   94.1056    0.5024 C.ar    1  UNL1        0.0015
     30 C          63.2812   93.3030    1.7191 C.ar    1  UNL1        0.0191
     31 C          61.8421   93.0479    2.0565 C.ar    1  UNL1        0.0814
     32 N          61.4879   92.2453    3.2733 N.ar    1  UNL1       -0.2422
@<TRIPOS>BOND
     1     1     2    2
     2     2     3   am
     3     3    11    1
     4    11    12   ar
     5    12    13   ar
     6    13    14   ar
     7    14    15   ar
     8    15    16   ar
     9    16    17    1
    10     2     4   am
    11     4     5    1
    12     5     6    1
    13     6     7    1
    14     7    18    1
    15    18    19   ar
    16    19    20   ar
    17    20    23    1
    18    23    24   ar
    19    24    25   ar
    20    25    26   ar
    21    26    27   ar
    22    27    28   ar
    23    28    29   ar
    24    29    30   ar
    25    30    31   ar
    26    31    32   ar
    27    20    21   ar
    28    21    22   ar
    29     7     8    1
    30     8     9    1
    31    16    11   ar
    32     9     4    1
    33    22    18   ar
    34    32    23   ar
    35    31    26   ar
    36     3    10    1
@<TRIPOS>MOLECULE
*****
 32 36 0 0 0
SMALL
GASTEIGER

@<TRIPOS>ATOM
      1 O          69.8283   74.5720   15.8986 O.2     1  UNL1       -0.2522
      2 C          71.1699   74.6172   15.2291 C.2     1  UNL1        0.3078
      3 N          72.1382   73.4865   15.4127 N.am    1  UNL1       -0.2674
      4 N          71.5431   75.7931   14.3759 N.am    1  UNL1       -0.2605
      5 C          70.5747   76.9238   14.1922 C.3     1  UNL1        0.1165
      6 C          70.9479   78.0997   13.3390 C.3     1  UNL1        0.1167
      7 N          72.2895   78.1449   12.6695 N.pl3   1  UNL1       -0.2585
      8 C          73.2578   77.0141   12.8532 C.3     1  UNL1        0.1167
      9 C          72.8846   75.8382   13.7064 C.3     1  UNL1        0.1165
     10 H          73.0187   73.5161   14.9733 H       1  UNL1        0.1564
     11 C          71.7650   72.3105   16.2660 C.ar    1  UNL1        0.0622
     12 C          71.4738   70.9840   15.6290 C.ar    1  UNL1        0.0156
     13 C          71.1007   69.8081   16.4822 C.ar    1  UNL1        0.0013
     14 C          71.0187   69.9587   17.9724 C.ar    1  UNL1        0.0009
     15 C          71.3099   71.2851   18.6094 C.ar    1  UNL1        0.0126
     16 C          71.6831   72.4610   17.7561 C.ar    1  UNL1        0.0711
     17 CL         71.9743   73.7875   18.3931 Cl      1  UNL1       -0.0810
     18 C          72.6627   79.3208   11.8163 C.ar    1  UNL1        0.3186
     19 N          72.2594   79.5370   10.3877 N.ar    1  UNL1       -0.1721
     20 C          72.8522   80.8368    9.9305 C.ar    1  UNL1        0.2224
     21 N          73.6218   81.4239   11.0763 N.ar    1  UNL1       -0.0524
     22 O          73.5047   80.4870   12.2418 O.2     1  UNL1       -0.3163
     23 C          72.7017   81.4431    8.5667 C.ar    1  UNL1        0.1203
     24 C          72.0502   82.7851    8.4102 C.ar    1  UNL1        0.0224
     25 C          71.8997   83.3914    7.0465 C.ar    1  UNL1        0.0031
     26 C          72.4007   82.6556    5.8391 C.ar    1  UNL1        0.0177
     27 C          72.2502   83.2618    4.4754 C.ar    1  UNL1        0.0015
     28 C          72.7512   82.5260    3.2682 C.ar    1  UNL1        0.0001
     29 C          73.4026   81.1840    3.4246 C.ar    1  UNL1        0.0015
     30 C          73.5532   80.5777    4.7883 C.ar    1  UNL1        0.0191
     31 C          73.0522   81.3135    5.9956 C.ar    1  UNL1        0.0814
     32 N          73.2027   80.7073    7.3594 N.ar    1  UNL1       -0.2422
@<TRIPOS>BOND
     1     1     2    2
     2     2     3   am
     3     3    11    1
     4    11    12   ar
     5    12    13   ar
     6    13    14   ar
     7    14    15   ar
     8    15    16   ar
     9    16    17    1
    10     2     4   am
    11     4     5    1
    12     5     6    1
    13     6     7    1
    14     7    18    1
    15    18    19   ar
    16    19    20   ar
    17    20    23    1
    18    23    24   ar
    19    24    25   ar
    20    25    26   ar
    21    26    27   ar
    22    27    28   ar
    23    28    29   ar
    24    29    30   ar
    25    30    31   ar
    26    31    32   ar
    27    20    21   ar
    28    21    22   ar
    29     7     8    1
    30     8     9    1
    31    16    11   ar
    32     9     4    1
    33    22    18   ar
    34    32    23   ar
    35    31    26   ar
    36     3    10    1
