@<TRIPOS>MOLECULE
*****
 47 54 0 0 0
SMALL
GASTEIGER

@<TRIPOS>ATOM
      1 N          56.9964   94.9080   -2.9603 N.am    1  UNL1       -0.2901
      2 C          58.0316   95.3950   -1.9901 C.2     1  UNL1        0.3078
      3 O          58.7509   96.6861   -2.2462 O.2     1  UNL1       -0.2522
      4 N          58.3473   94.5908   -0.7639 N.am    1  UNL1       -0.2403
      5 C          57.6280   93.2998   -0.5079 C.3     1  UNL1        0.1216
      6 C          57.9438   92.4956    0.7184 C.3     1  UNL1        0.1189
      7 N          58.9789   92.9826    1.6886 N.pl3   1  UNL1       -0.2696
      8 C          59.6982   94.2737    1.4326 C.ar    1  UNL1        0.0666
      9 C          60.7334   94.7607    2.4028 C.ar    1  UNL1        0.0161
     10 C          61.4527   96.0518    2.1468 C.ar    1  UNL1        0.0014
     11 C          61.1370   96.8559    0.9205 C.ar    1  UNL1        0.0014
     12 C          60.1019   96.3689   -0.0497 C.ar    1  UNL1        0.0162
     13 C          59.3824   95.0778    0.2063 C.ar    1  UNL1        0.0689
     14 H          56.5243   94.0606   -2.7923 H       1  UNL1        0.1509
     15 C          57.7003   95.3392   -4.0222 C.3     1  UNL1        0.0687
     16 C          56.7139   96.0976   -4.8598 C.3     1  UNL1        0.0086
     17 C          57.1534   96.7319   -6.1460 C.3     1  UNL1        0.0006
     18 C          58.5794   96.6079   -6.5946 C.3     1  UNL1        0.0017
     19 C          59.5658   95.8495   -5.7569 C.3     1  UNL1        0.0185
     20 C          59.1263   95.2151   -4.4707 C.3     1  UNL1        0.0102
     21 C          56.6807   95.7121   -4.1866 C.3     1  UNL1        0.0730
     22 C          55.2879   96.2216   -4.4113 C.3     1  UNL1        0.0185
     23 C          55.7274   96.8560   -5.6975 C.3     1  UNL1        0.0017
     24 C          56.2743   95.4632   -3.5736 C.3     1  UNL1        0.0102
     25 N          57.5481   93.2554   -2.4779 N.am    1  UNL1       -0.3288
     26 C          57.2608   94.7048   -2.7359 C.2     1  UNL1        0.2184
     27 O          56.5344   95.2046   -1.5225 O.2     1  UNL1       -0.2754
     28 H          57.2596   92.8390   -1.6337 H       1  UNL1        0.1449
     29 H          58.0251   92.7204   -3.1529 H       1  UNL1        0.1449
     30 C          59.2946   92.1785    2.9148 C.ar    1  UNL1        0.1356
     31 C          60.7015   91.7277    3.1744 C.ar    1  UNL1        0.0359
     32 C          61.0173   90.9236    4.4007 C.ar    1  UNL1        0.0190
     33 C          59.9262   90.5702    5.3673 C.ar    1  UNL1        0.0675
     34 C          58.5193   91.0209    5.1077 C.ar    1  UNL1        0.1147
     35 N          58.2035   91.8251    3.8815 N.ar    1  UNL1       -0.2276
     36 N          60.2419   89.7661    6.5936 N.pl3   1  UNL1       -0.3033
     37 C          61.0372   90.3788    7.7080 C.3     1  UNL1        0.1100
     38 C          61.3530   89.5747    8.9343 C.3     1  UNL1        0.1168
     39 N          60.8735   88.1578    9.0460 N.3     1  UNL1       -0.1560
     40 C          60.0782   87.5451    7.9316 C.3     1  UNL1        0.1168
     41 C          59.7624   88.3492    6.7053 C.3     1  UNL1        0.1100
     42 S          61.1893   87.3537   10.2723 S.O2    1  UNL1        0.0422
     43 O          60.0200   87.9726   10.9792 O.2     1  UNL1       -0.1573
     44 O          62.3585   86.7348    9.5653 O.2     1  UNL1       -0.1573
     45 C          61.5050   86.5496   11.4985 C.3     1  UNL1        0.1459
     46 C          61.7783   86.4804   12.9718 C.3     1  UNL1        0.0270
     47 C          61.7787   85.2260   12.1491 C.3     1  UNL1        0.0270
@<TRIPOS>BOND
     1    25    26   am
     2    26    27    2
     3    15    26    1
     4    15    16    1
     5    16    17    1
     6    17    18    1
     7    18    19    1
     8    19    20    1
     9    19    21    1
    10    21     1    1
    11     1     2   am
    12     2     3    2
    13     2     4   am
    14     4     5    1
    15     5     6    1
    16     6     7    1
    17     7    30    1
    18    30    31   ar
    19    31    32   ar
    20    32    33   ar
    21    33    36    1
    22    36    37    1
    23    37    38    1
    24    38    39    1
    25    39    42    1
    26    42    43    2
    27    42    44    2
    28    42    45    1
    29    45    46    1
    30    46    47    1
    31    39    40    1
    32    40    41    1
    33    33    34   ar
    34    34    35   ar
    35     7     8    1
    36     8     9   ar
    37     9    10   ar
    38    10    11   ar
    39    11    12   ar
    40    12    13   ar
    41    21    22    1
    42    22    23    1
    43    22    24    1
    44    20    15    1
    45    13     4    1
    46    24    15    1
    47    23    17    1
    48    35    30   ar
    49    13     8   ar
    50    41    36    1
    51    47    45    1
    52    25    28    1
    53    25    29    1
    54     1    14    1
@<TRIPOS>MOLECULE
*****
 47 54 0 0 0
SMALL
GASTEIGER

@<TRIPOS>ATOM
      1 N          63.0385   89.3026   12.0453 N.am    1  UNL1       -0.2901
      2 C          62.0064   88.6403   11.1816 C.2     1  UNL1        0.3078
      3 O          61.3513   87.3698   11.6363 O.2     1  UNL1       -0.2522
      4 N          61.6293   89.2483    9.8633 N.am    1  UNL1       -0.2403
      5 C          62.2844   90.5188    9.4085 C.3     1  UNL1        0.1216
      6 C          61.9074   91.1269    8.0902 C.3     1  UNL1        0.1189
      7 N          60.8752   90.4645    7.2266 N.pl3   1  UNL1       -0.2696
      8 C          60.2201   89.1941    7.6813 C.ar    1  UNL1        0.0666
      9 C          59.1879   88.5317    6.8176 C.ar    1  UNL1        0.0161
     10 C          58.5328   87.2613    7.2723 C.ar    1  UNL1        0.0014
     11 C          58.9099   86.6532    8.5907 C.ar    1  UNL1        0.0014
     12 C          59.9420   87.3155    9.4543 C.ar    1  UNL1        0.0162
     13 C          60.5972   88.5860    8.9996 C.ar    1  UNL1        0.0689
     14 H          63.4685   90.1364   11.7468 H       1  UNL1        0.1509
     15 C          63.2333   88.0497   12.4937 C.3     1  UNL1        0.0687
     16 C          63.5948   88.2071   13.9409 C.3     1  UNL1        0.0086
     17 C          63.8863   86.9965   14.7771 C.3     1  UNL1        0.0006
     18 C          63.8164   85.6284   14.1660 C.3     1  UNL1        0.0017
     19 C          63.4550   85.4709   12.7188 C.3     1  UNL1        0.0185
     20 C          63.1634   86.6816   11.8826 C.3     1  UNL1        0.0102
     21 C          63.4156   88.6945   13.3636 C.3     1  UNL1        0.0730
     22 C          63.6647   89.5752   14.5520 C.3     1  UNL1        0.0185
     23 C          63.9562   88.3646   15.3881 C.3     1  UNL1        0.0017
     24 C          63.3032   89.4178   13.1047 C.3     1  UNL1        0.0102
     25 N          61.7165   90.0820   11.9289 N.am    1  UNL1       -0.3288
     26 C          62.9417   89.2604   11.6574 C.2     1  UNL1        0.2184
     27 O          63.6357   89.9217   10.5038 O.2     1  UNL1       -0.2754
     28 H          61.5251   90.8766   11.3800 H       1  UNL1        0.1449
     29 H          61.1037   89.8267   12.6559 H       1  UNL1        0.1449
     30 C          60.4982   91.0726    5.9082 C.ar    1  UNL1        0.1356
     31 C          59.0685   91.4301    5.6287 C.ar    1  UNL1        0.0359
     32 C          58.6914   92.0382    4.3103 C.ar    1  UNL1        0.0190
     33 C          59.7440   92.2888    3.2715 C.ar    1  UNL1        0.0675
     34 C          61.1737   91.9313    3.5510 C.ar    1  UNL1        0.1147
     35 N          61.5508   91.3232    4.8694 N.ar    1  UNL1       -0.2276
     36 N          59.3670   92.8969    1.9531 N.pl3   1  UNL1       -0.3033
     37 C          58.5670   92.1037    0.9628 C.3     1  UNL1        0.1100
     38 C          58.1900   92.7118   -0.3556 C.3     1  UNL1        0.1168
     39 N          58.6129   94.1131   -0.6836 N.3     1  UNL1       -0.1560
     40 C          59.4129   94.9062    0.3068 C.3     1  UNL1        0.1168
     41 C          59.7899   94.2981    1.6252 C.3     1  UNL1        0.1100
     42 S          58.2358   94.7212   -2.0019 S.O2    1  UNL1        0.0422
     43 O          57.4382   95.7725   -1.2889 O.2     1  UNL1       -0.1573
     44 O          59.0335   93.6698   -2.7150 O.2     1  UNL1       -0.1573
     45 C          57.8588   95.3292   -3.3203 C.3     1  UNL1        0.1459
     46 C          57.0397   95.3020   -4.5765 C.3     1  UNL1        0.0270
     47 C          58.0248   96.4097   -4.3474 C.3     1  UNL1        0.0270
@<TRIPOS>BOND
     1    25    26   am
     2    26    27    2
     3    15    26    1
     4    15    16    1
     5    16    17    1
     6    17    18    1
     7    18    19    1
     8    19    20    1
     9    19    21    1
    10    21     1    1
    11     1     2   am
    12     2     3    2
    13     2     4   am
    14     4     5    1
    15     5     6    1
    16     6     7    1
    17     7    30    1
    18    30    31   ar
    19    31    32   ar
    20    32    33   ar
    21    33    36    1
    22    36    37    1
    23    37    38    1
    24    38    39    1
    25    39    42    1
    26    42    43    2
    27    42    44    2
    28    42    45    1
    29    45    46    1
    30    46    47    1
    31    39    40    1
    32    40    41    1
    33    33    34   ar
    34    34    35   ar
    35     7     8    1
    36     8     9   ar
    37     9    10   ar
    38    10    11   ar
    39    11    12   ar
    40    12    13   ar
    41    21    22    1
    42    22    23    1
    43    22    24    1
    44    20    15    1
    45    13     4    1
    46    24    15    1
    47    23    17    1
    48    35    30   ar
    49    13     8   ar
    50    41    36    1
    51    47    45    1
    52    25    28    1
    53    25    29    1
    54     1    14    1
@<TRIPOS>MOLECULE
*****
 47 54 0 0 0
SMALL
GASTEIGER

@<TRIPOS>ATOM
      1 N          62.3639   84.6405   11.0970 N.am    1  UNL1       -0.2901
      2 C          61.6931   85.9593   11.3435 C.2     1  UNL1        0.3078
      3 O          61.3189   86.3611   12.7394 O.2     1  UNL1       -0.2522
      4 N          61.3964   86.8762   10.1941 N.am    1  UNL1       -0.2403
      5 C          61.7705   86.4744    8.7982 C.3     1  UNL1        0.1216
      6 C          61.4738   87.3913    7.6488 C.3     1  UNL1        0.1189
      7 N          60.8029   88.7101    7.8952 N.pl3   1  UNL1       -0.2696
      8 C          60.4288   89.1119    9.2911 C.ar    1  UNL1        0.0666
      9 C          59.7579   90.4307    9.5376 C.ar    1  UNL1        0.0161
     10 C          59.3837   90.8325   10.9334 C.ar    1  UNL1        0.0014
     11 C          59.6804   89.9156   12.0829 C.ar    1  UNL1        0.0014
     12 C          60.3513   88.5968   11.8364 C.ar    1  UNL1        0.0162
     13 C          60.7255   88.1950   10.4405 C.ar    1  UNL1        0.0689
     14 H          62.6095   84.3768   10.1809 H       1  UNL1        0.1509
     15 C          62.9689   84.7766   12.2905 C.3     1  UNL1        0.0687
     16 C          62.8971   83.4167   12.9194 C.3     1  UNL1        0.0086
     17 C          63.4827   83.1885   14.2813 C.3     1  UNL1        0.0006
     18 C          64.1402   84.3201   15.0143 C.3     1  UNL1        0.0017
     19 C          64.2119   85.6799   14.3854 C.3     1  UNL1        0.0185
     20 C          63.6263   85.9082   13.0235 C.3     1  UNL1        0.0102
     21 C          62.6606   83.7236   12.2465 C.3     1  UNL1        0.0730
     22 C          62.2397   82.2852   12.1864 C.3     1  UNL1        0.0185
     23 C          62.8253   82.0569   13.5483 C.3     1  UNL1        0.0017
     24 C          62.3114   83.6450   11.5575 C.3     1  UNL1        0.0102
     25 N          63.2771   85.0443    9.7247 N.am    1  UNL1       -0.3288
     26 C          62.3832   85.0049   10.9285 C.2     1  UNL1        0.2184
     27 O          60.9906   85.2257   10.4168 O.2     1  UNL1       -0.2754
     28 H          62.8927   85.1942    8.8308 H       1  UNL1        0.1449
     29 H          64.2483   84.9203    9.8284 H       1  UNL1        0.1449
     30 C          60.5062   89.6270    6.7458 C.ar    1  UNL1        0.1356
     31 C          59.0886   89.8451    6.3069 C.ar    1  UNL1        0.0359
     32 C          58.7919   90.7620    5.1575 C.ar    1  UNL1        0.0190
     33 C          59.9128   91.4609    4.4469 C.ar    1  UNL1        0.0675
     34 C          61.3305   91.2428    4.8857 C.ar    1  UNL1        0.1147
     35 N          61.6272   90.3259    6.0352 N.ar    1  UNL1       -0.2276
     36 N          59.6161   92.3778    3.2975 N.pl3   1  UNL1       -0.3033
     37 C          60.3647   93.6700    3.1563 C.3     1  UNL1        0.1100
     38 C          60.0680   94.5869    2.0068 C.3     1  UNL1        0.1168
     39 N          59.0227   94.2117    0.9986 N.3     1  UNL1       -0.1560
     40 C          58.2741   92.9196    1.1398 C.3     1  UNL1        0.1168
     41 C          58.5708   92.0026    2.2893 C.3     1  UNL1        0.1100
     42 S          58.7260   95.1286   -0.1508 S.O2    1  UNL1        0.0422
     43 O          59.3956   96.2569    0.5764 O.2     1  UNL1       -0.1573
     44 O          58.0564   94.0004   -0.8780 O.2     1  UNL1       -0.1573
     45 C          58.4293   96.0456   -1.3002 C.3     1  UNL1        0.1459
     46 C          58.9013   96.8554   -2.4713 C.3     1  UNL1        0.0270
     47 C          57.4434   96.8239   -2.1200 C.3     1  UNL1        0.0270
@<TRIPOS>BOND
     1    25    26   am
     2    26    27    2
     3    15    26    1
     4    15    16    1
     5    16    17    1
     6    17    18    1
     7    18    19    1
     8    19    20    1
     9    19    21    1
    10    21     1    1
    11     1     2   am
    12     2     3    2
    13     2     4   am
    14     4     5    1
    15     5     6    1
    16     6     7    1
    17     7    30    1
    18    30    31   ar
    19    31    32   ar
    20    32    33   ar
    21    33    36    1
    22    36    37    1
    23    37    38    1
    24    38    39    1
    25    39    42    1
    26    42    43    2
    27    42    44    2
    28    42    45    1
    29    45    46    1
    30    46    47    1
    31    39    40    1
    32    40    41    1
    33    33    34   ar
    34    34    35   ar
    35     7     8    1
    36     8     9   ar
    37     9    10   ar
    38    10    11   ar
    39    11    12   ar
    40    12    13   ar
    41    21    22    1
    42    22    23    1
    43    22    24    1
    44    20    15    1
    45    13     4    1
    46    24    15    1
    47    23    17    1
    48    35    30   ar
    49    13     8   ar
    50    41    36    1
    51    47    45    1
    52    25    28    1
    53    25    29    1
    54     1    14    1
@<TRIPOS>MOLECULE
*****
 47 54 0 0 0
SMALL
GASTEIGER

@<TRIPOS>ATOM
      1 N          71.3762   73.9367   17.5445 N.am    1  UNL1       -0.2901
      2 C          71.9065   73.3685   16.2616 C.2     1  UNL1        0.3078
      3 O          72.3031   71.9237   16.1886 O.2     1  UNL1       -0.2522
      4 N          72.0401   74.2450   15.0517 N.am    1  UNL1       -0.2403
      5 C          71.6435   75.6897   15.1247 C.3     1  UNL1        0.1216
      6 C          71.7771   76.5662   13.9148 C.3     1  UNL1        0.1189
      7 N          72.3073   75.9980   12.6319 N.pl3   1  UNL1       -0.2696
      8 C          72.7040   74.5533   12.5589 C.ar    1  UNL1        0.0666
      9 C          73.2343   73.9850   11.2759 C.ar    1  UNL1        0.0161
     10 C          73.6309   72.5402   11.2029 C.ar    1  UNL1        0.0014
     11 C          73.4973   71.6637   12.4129 C.ar    1  UNL1        0.0014
     12 C          72.9670   72.2319   13.6958 C.ar    1  UNL1        0.0162
     13 C          72.5704   73.6768   13.7688 C.ar    1  UNL1        0.0689
     14 H          71.1159   74.8850   17.5924 H       1  UNL1        0.1509
     15 C          71.0201   72.6574   17.7574 C.3     1  UNL1        0.0687
     16 C          71.1184   72.4690   19.2423 C.3     1  UNL1        0.0086
     17 C          70.7886   71.1393   19.8530 C.3     1  UNL1        0.0006
     18 C          70.3605   69.9980   18.9789 C.3     1  UNL1        0.0017
     19 C          70.2621   70.1863   17.4940 C.3     1  UNL1        0.0185
     20 C          70.5919   71.5161   16.8833 C.3     1  UNL1        0.0102
     21 C          71.2426   73.0602   18.7544 C.3     1  UNL1        0.0730
     22 C          71.5465   73.6103   20.1164 C.3     1  UNL1        0.0185
     23 C          71.2167   72.2806   20.7271 C.3     1  UNL1        0.0017
     24 C          71.4482   73.7987   18.6315 C.3     1  UNL1        0.0102
     25 N          70.2867   74.7698   16.4345 N.am    1  UNL1       -0.3288
     26 C          71.3498   73.9872   17.1466 C.2     1  UNL1        0.2184
     27 O          72.5990   74.8130   17.0601 O.2     1  UNL1       -0.2754
     28 H          70.5031   75.6425   16.0337 H       1  UNL1        0.1449
     29 H          69.3724   74.4107   16.3680 H       1  UNL1        0.1449
     30 C          72.4410   76.8745   11.4220 C.ar    1  UNL1        0.1356
     31 C          71.5261   78.0495   11.2423 C.ar    1  UNL1        0.0359
     32 C          71.6597   78.9260   10.0324 C.ar    1  UNL1        0.0190
     33 C          72.7082   78.6275    9.0022 C.ar    1  UNL1        0.0675
     34 C          73.6231   77.4525    9.1818 C.ar    1  UNL1        0.1147
     35 N          73.4895   76.5760   10.3917 N.ar    1  UNL1       -0.2276
     36 N          72.8418   79.5040    7.7922 N.pl3   1  UNL1       -0.3033
     37 C          73.0952   80.9734    7.9549 C.3     1  UNL1        0.1100
     38 C          73.2289   81.8499    6.7450 C.3     1  UNL1        0.1168
     39 N          73.1091   81.2570    5.3724 N.3     1  UNL1       -0.1560
     40 C          72.8557   79.7876    5.2097 C.3     1  UNL1        0.1168
     41 C          72.7221   78.9111    6.4197 C.3     1  UNL1        0.1100
     42 S          73.2427   82.1335    4.1625 S.O2    1  UNL1        0.0422
     43 O          73.6315   80.9402    3.3410 O.2     1  UNL1       -0.1573
     44 O          72.8540   83.3268    4.9840 O.2     1  UNL1       -0.1573
     45 C          73.3763   83.0100    2.9526 C.3     1  UNL1        0.1459
     46 C          73.5730   83.1610    1.4733 C.3     1  UNL1        0.0270
     47 C          73.4111   84.3771    2.3364 C.3     1  UNL1        0.0270
@<TRIPOS>BOND
     1    25    26   am
     2    26    27    2
     3    15    26    1
     4    15    16    1
     5    16    17    1
     6    17    18    1
     7    18    19    1
     8    19    20    1
     9    19    21    1
    10    21     1    1
    11     1     2   am
    12     2     3    2
    13     2     4   am
    14     4     5    1
    15     5     6    1
    16     6     7    1
    17     7    30    1
    18    30    31   ar
    19    31    32   ar
    20    32    33   ar
    21    33    36    1
    22    36    37    1
    23    37    38    1
    24    38    39    1
    25    39    42    1
    26    42    43    2
    27    42    44    2
    28    42    45    1
    29    45    46    1
    30    46    47    1
    31    39    40    1
    32    40    41    1
    33    33    34   ar
    34    34    35   ar
    35     7     8    1
    36     8     9   ar
    37     9    10   ar
    38    10    11   ar
    39    11    12   ar
    40    12    13   ar
    41    21    22    1
    42    22    23    1
    43    22    24    1
    44    20    15    1
    45    13     4    1
    46    24    15    1
    47    23    17    1
    48    35    30   ar
    49    13     8   ar
    50    41    36    1
    51    47    45    1
    52    25    28    1
    53    25    29    1
    54     1    14    1
@<TRIPOS>MOLECULE
*****
 47 54 0 0 0
SMALL
GASTEIGER

@<TRIPOS>ATOM
      1 N          57.1627   94.9343   -2.5878 N.am    1  UNL1       -0.2901
      2 C          58.3502   95.2683   -1.7344 C.2     1  UNL1        0.3078
      3 O          59.2467   96.4104   -2.1108 O.2     1  UNL1       -0.2522
      4 N          58.6411   94.4601   -0.5047 N.am    1  UNL1       -0.2403
      5 C          57.7445   93.3180   -0.1283 C.3     1  UNL1        0.1216
      6 C          58.0355   92.5099    1.1014 C.3     1  UNL1        0.1189
      7 N          59.2229   92.8438    1.9548 N.pl3   1  UNL1       -0.2696
      8 C          60.1195   93.9860    1.5784 C.ar    1  UNL1        0.0666
      9 C          61.3071   94.3200    2.4318 C.ar    1  UNL1        0.0161
     10 C          62.2036   95.4621    2.0554 C.ar    1  UNL1        0.0014
     11 C          61.9127   96.2702    0.8257 C.ar    1  UNL1        0.0014
     12 C          60.7252   95.9363   -0.0277 C.ar    1  UNL1        0.0162
     13 C          59.8286   94.7941    0.3487 C.ar    1  UNL1        0.0689
     14 H          56.5742   94.1847   -2.3408 H       1  UNL1        0.1509
     15 C          56.0506   95.4308   -3.1584 C.3     1  UNL1        0.0687
     16 C          56.5302   96.1432   -4.3882 C.3     1  UNL1        0.0086
     17 C          55.5468   96.8305   -5.2883 C.3     1  UNL1        0.0006
     18 C          54.0837   96.8056   -4.9586 C.3     1  UNL1        0.0017
     19 C          53.6040   96.0933   -3.7288 C.3     1  UNL1        0.0185
     20 C          54.5875   95.4059   -2.8287 C.3     1  UNL1        0.0102
     21 C          56.8718   95.7425   -3.8175 C.3     1  UNL1        0.0730
     22 C          57.9933   96.1681   -4.7180 C.3     1  UNL1        0.0185
     23 C          57.0099   96.8555   -5.6181 C.3     1  UNL1        0.0017
     24 C          57.5137   95.4558   -3.4881 C.3     1  UNL1        0.0102
     25 N          57.1836   95.1868   -0.8331 N.am    1  UNL1       -0.3288
     26 C          57.0341   94.7434   -2.2582 C.2     1  UNL1        0.2184
     27 O          58.0016   93.6121   -2.4429 O.2     1  UNL1       -0.2754
     28 H          57.8291   94.7357   -0.2423 H       1  UNL1        0.1449
     29 H          56.6362   95.9290   -0.4885 H       1  UNL1        0.1449
     30 C          59.5139   92.0357    3.1845 C.ar    1  UNL1        0.1356
     31 C          58.4187   91.7450    4.1674 C.ar    1  UNL1        0.0359
     32 C          58.7096   90.9369    5.3972 C.ar    1  UNL1        0.0190
     33 C          60.0957   90.4194    5.6440 C.ar    1  UNL1        0.0675
     34 C          61.1909   90.7101    4.6612 C.ar    1  UNL1        0.1147
     35 N          60.8999   91.5183    3.4314 N.ar    1  UNL1       -0.2276
     36 N          60.3866   89.6113    6.8738 N.pl3   1  UNL1       -0.3033
     37 C          59.8940   88.1983    6.9766 C.3     1  UNL1        0.1100
     38 C          60.1849   87.3901    8.2063 C.3     1  UNL1        0.1168
     39 N          60.9685   87.9950    9.3333 N.3     1  UNL1       -0.1560
     40 C          61.4612   89.4080    9.2305 C.3     1  UNL1        0.1168
     41 C          61.1702   90.2161    8.0007 C.3     1  UNL1        0.1100
     42 S          61.2594   87.1868   10.5630 S.O2    1  UNL1        0.0422
     43 O          60.2175   87.9589   11.3169 O.2     1  UNL1       -0.1573
     44 O          62.3013   86.4148    9.8091 O.2     1  UNL1       -0.1573
     45 C          61.5503   86.3787   11.7927 C.3     1  UNL1        0.1459
     46 C          61.6303   86.2696   13.2866 C.3     1  UNL1        0.0270
     47 C          61.9743   85.0881   12.4288 C.3     1  UNL1        0.0270
@<TRIPOS>BOND
     1    25    26   am
     2    26    27    2
     3    15    26    1
     4    15    16    1
     5    16    17    1
     6    17    18    1
     7    18    19    1
     8    19    20    1
     9    19    21    1
    10    21     1    1
    11     1     2   am
    12     2     3    2
    13     2     4   am
    14     4     5    1
    15     5     6    1
    16     6     7    1
    17     7    30    1
    18    30    31   ar
    19    31    32   ar
    20    32    33   ar
    21    33    36    1
    22    36    37    1
    23    37    38    1
    24    38    39    1
    25    39    42    1
    26    42    43    2
    27    42    44    2
    28    42    45    1
    29    45    46    1
    30    46    47    1
    31    39    40    1
    32    40    41    1
    33    33    34   ar
    34    34    35   ar
    35     7     8    1
    36     8     9   ar
    37     9    10   ar
    38    10    11   ar
    39    11    12   ar
    40    12    13   ar
    41    21    22    1
    42    22    23    1
    43    22    24    1
    44    20    15    1
    45    13     4    1
    46    24    15    1
    47    23    17    1
    48    35    30   ar
    49    13     8   ar
    50    41    36    1
    51    47    45    1
    52    25    28    1
    53    25    29    1
    54     1    14    1
@<TRIPOS>MOLECULE
*****
 47 54 0 0 0
SMALL
GASTEIGER

@<TRIPOS>ATOM
      1 N          62.1044   85.0526   11.6711 N.am    1  UNL1       -0.2901
      2 C          62.4318   86.5160   11.6356 C.2     1  UNL1        0.3078
      3 O          63.1591   87.1498   12.7842 O.2     1  UNL1       -0.2522
      4 N          62.0318   87.3456   10.4516 N.am    1  UNL1       -0.2403
      5 C          61.3045   86.7117    9.3031 C.3     1  UNL1        0.1216
      6 C          60.9045   87.5413    8.1191 C.3     1  UNL1        0.1189
      7 N          61.2318   89.0047    8.0836 N.pl3   1  UNL1       -0.2696
      8 C          61.9592   89.6385    9.2321 C.ar    1  UNL1        0.0666
      9 C          62.2866   91.1020    9.1967 C.ar    1  UNL1        0.0161
     10 C          63.0139   91.7358   10.3453 C.ar    1  UNL1        0.0014
     11 C          63.4139   90.9062   11.5293 C.ar    1  UNL1        0.0014
     12 C          63.0865   89.4429   11.5647 C.ar    1  UNL1        0.0162
     13 C          62.3591   88.8089   10.4162 C.ar    1  UNL1        0.0689
     14 H          61.6270   84.6366   10.9172 H       1  UNL1        0.1509
     15 C          62.4595   83.7688   11.8564 C.3     1  UNL1        0.0687
     16 C          62.7258   83.6481   13.3276 C.3     1  UNL1        0.0086
     17 C          63.1523   82.3320   13.9071 C.3     1  UNL1        0.0006
     18 C          63.3124   81.1365   13.0154 C.3     1  UNL1        0.0017
     19 C          63.0461   81.2571   11.5442 C.3     1  UNL1        0.0185
     20 C          62.6197   82.5733   10.9647 C.3     1  UNL1        0.0102
     21 C          62.5044   84.2231   12.8551 C.3     1  UNL1        0.0730
     22 C          62.5657   84.8436   14.2193 C.3     1  UNL1        0.0185
     23 C          62.9921   83.5275   14.7988 C.3     1  UNL1        0.0017
     24 C          62.2994   84.9643   12.7481 C.3     1  UNL1        0.0102
     25 N          62.7526   85.6493   10.0878 N.am    1  UNL1       -0.3288
     26 C          62.0330   85.0849   11.2768 C.2     1  UNL1        0.2184
     27 O          60.9620   86.0771   11.6212 O.2     1  UNL1       -0.2754
     28 H          62.4726   86.5131    9.7074 H       1  UNL1        0.1449
     29 H          63.5047   85.1559    9.6878 H       1  UNL1        0.1449
     30 C          60.8319   89.8342    6.8996 C.ar    1  UNL1        0.1356
     31 C          59.3817   89.9941    6.5513 C.ar    1  UNL1        0.0359
     32 C          58.9817   90.8236    5.3673 C.ar    1  UNL1        0.0190
     33 C          60.0319   91.4933    4.5316 C.ar    1  UNL1        0.0675
     34 C          61.4821   91.3334    4.8798 C.ar    1  UNL1        0.1147
     35 N          61.8821   90.5039    6.0638 N.ar    1  UNL1       -0.2276
     36 N          59.6319   92.3229    3.3476 N.pl3   1  UNL1       -0.3033
     37 C          60.4029   93.5634    3.0062 C.3     1  UNL1        0.1100
     38 C          60.0029   94.3930    1.8222 C.3     1  UNL1        0.1168
     39 N          58.8320   93.9820    0.9796 N.3     1  UNL1       -0.1560
     40 C          58.0611   92.7414    1.3210 C.3     1  UNL1        0.1168
     41 C          58.4610   91.9118    2.5050 C.3     1  UNL1        0.1100
     42 S          58.4320   94.8115   -0.2044 S.O2    1  UNL1        0.0422
     43 O          57.5859   93.6811   -0.7106 O.2     1  UNL1       -0.1573
     44 O          59.2782   95.9419    0.3017 O.2     1  UNL1       -0.1573
     45 C          58.0320   95.6411   -1.3884 C.3     1  UNL1        0.1459
     46 C          56.9804   96.3823   -2.1596 C.3     1  UNL1        0.0270
     47 C          58.3909   96.3366   -2.6680 C.3     1  UNL1        0.0270
@<TRIPOS>BOND
     1    25    26   am
     2    26    27    2
     3    15    26    1
     4    15    16    1
     5    16    17    1
     6    17    18    1
     7    18    19    1
     8    19    20    1
     9    19    21    1
    10    21     1    1
    11     1     2   am
    12     2     3    2
    13     2     4   am
    14     4     5    1
    15     5     6    1
    16     6     7    1
    17     7    30    1
    18    30    31   ar
    19    31    32   ar
    20    32    33   ar
    21    33    36    1
    22    36    37    1
    23    37    38    1
    24    38    39    1
    25    39    42    1
    26    42    43    2
    27    42    44    2
    28    42    45    1
    29    45    46    1
    30    46    47    1
    31    39    40    1
    32    40    41    1
    33    33    34   ar
    34    34    35   ar
    35     7     8    1
    36     8     9   ar
    37     9    10   ar
    38    10    11   ar
    39    11    12   ar
    40    12    13   ar
    41    21    22    1
    42    22    23    1
    43    22    24    1
    44    20    15    1
    45    13     4    1
    46    24    15    1
    47    23    17    1
    48    35    30   ar
    49    13     8   ar
    50    41    36    1
    51    47    45    1
    52    25    28    1
    53    25    29    1
    54     1    14    1
