@<TRIPOS>MOLECULE
*****
 29 31 0 0 0
SMALL
GASTEIGER

@<TRIPOS>ATOM
      1 C          65.2898   92.1636   14.4885 C.2     1  UNL1        0.2435
      2 O          65.0262   92.0541   15.9611 O.2     1  UNL1       -0.2731
      3 N          64.4374   91.4043   13.5155 N.am    1  UNL1       -0.2782
      4 C          64.7009   91.5139   12.0429 C.3     1  UNL1        0.0938
      5 C          63.8485   90.7545   11.0698 C.3     1  UNL1        0.0259
      6 C          62.7326   89.8855   11.5694 C.3     1  UNL1        0.0257
      7 C          62.4690   89.7759   13.0420 C.3     1  UNL1        0.0259
      8 C          63.3214   90.5353   14.0150 C.3     1  UNL1        0.0938
      9 C          61.8802   89.1262   10.5964 C.ar    1  UNL1       -0.0223
     10 C          61.9848   87.6321   10.5147 C.ar    1  UNL1       -0.0034
     11 C          61.1324   86.8726    9.5416 C.ar    1  UNL1        0.0111
     12 C          60.1754   87.6073    8.6504 C.ar    1  UNL1        0.0577
     13 CL         59.3230   86.8480    7.6774 Cl      1  UNL1       -0.0822
     14 C          60.0708   89.1015    8.7322 C.ar    1  UNL1        0.0111
     15 C          60.9232   89.8609    9.7051 C.ar    1  UNL1       -0.0034
     16 C          66.4057   93.0326   13.9889 C.3     1  UNL1        0.1489
     17 N          66.1477   94.0337   12.9019 N.am    1  UNL1       -0.2948
     18 C          66.7750   93.8529   11.5515 C.2     1  UNL1        0.2461
     19 O          67.6603   92.6710   11.2879 O.2     1  UNL1       -0.2701
     20 H          65.5667   94.8094   13.0749 H       1  UNL1        0.1501
     21 C          66.5170   94.8539   10.4645 C.ar    1  UNL1        0.0534
     22 C          65.3452   95.7849   10.5650 C.ar    1  UNL1        0.0045
     23 C          65.0873   96.7859    9.4781 C.ar    1  UNL1        0.0001
     24 C          66.0012   96.8559    8.2907 C.ar    1  UNL1        0.0000
     25 C          67.1730   95.9250    8.1902 C.ar    1  UNL1        0.0001
     26 C          67.4309   94.9240    9.2771 C.ar    1  UNL1        0.0045
     27 C          68.2231   93.8334   15.6638 C.3     1  UNL1        0.0022
     28 C          67.7796   92.9005   14.5762 C.3     1  UNL1        0.0269
     29 C          68.7099   91.8355   14.0759 C.3     1  UNL1        0.0022
@<TRIPOS>BOND
     1    27    28    1
     2    28    29    1
     3    28    16    1
     4    16    17    1
     5    17    18   am
     6    18    19    2
     7    18    21    1
     8    21    22   ar
     9    22    23   ar
    10    23    24   ar
    11    24    25   ar
    12    25    26   ar
    13    16     1    1
    14     1     2    2
    15     1     3   am
    16     3     4    1
    17     4     5    1
    18     5     6    1
    19     6     9    1
    20     9    10   ar
    21    10    11   ar
    22    11    12   ar
    23    12    13    1
    24    12    14   ar
    25    14    15   ar
    26     6     7    1
    27     7     8    1
    28    26    21   ar
    29     8     3    1
    30    15     9   ar
    31    17    20    1
@<TRIPOS>MOLECULE
*****
 29 31 0 0 0
SMALL
GASTEIGER

@<TRIPOS>ATOM
      1 C          60.9328   88.4789    9.2823 C.2     1  UNL1        0.2435
      2 O          60.2525   89.3172    8.2408 O.2     1  UNL1       -0.2731
      3 N          61.8268   89.1252   10.2987 N.am    1  UNL1       -0.2782
      4 C          62.5071   88.2869   11.3401 C.3     1  UNL1        0.0938
      5 C          63.4012   88.9332   12.3565 C.3     1  UNL1        0.0259
      6 C          63.6150   90.4177   12.3314 C.3     1  UNL1        0.0257
      7 C          62.9347   91.2559   11.2899 C.3     1  UNL1        0.0259
      8 C          62.0407   90.6096   10.2736 C.3     1  UNL1        0.0938
      9 C          64.5090   91.0639   13.3478 C.ar    1  UNL1       -0.0223
     10 C          65.7362   91.8039   12.9046 C.ar    1  UNL1       -0.0034
     11 C          66.6303   92.4502   13.9209 C.ar    1  UNL1        0.0111
     12 C          66.2972   92.3564   15.3805 C.ar    1  UNL1        0.0577
     13 CL         67.1913   93.0027   16.3968 Cl      1  UNL1       -0.0822
     14 C          65.0700   91.6164   15.8237 C.ar    1  UNL1        0.0111
     15 C          64.1760   90.9701   14.8073 C.ar    1  UNL1       -0.0034
     16 C          60.7190   86.9945    9.3074 C.3     1  UNL1        0.1489
     17 N          61.1200   86.1993   10.5145 N.am    1  UNL1       -0.2948
     18 C          62.3214   85.3031   10.4570 C.2     1  UNL1        0.2461
     19 O          63.1219   85.2020    9.1925 O.2     1  UNL1       -0.2701
     20 H          60.5946   86.2656   11.3445 H       1  UNL1        0.1501
     21 C          62.7224   84.5079   11.6641 C.ar    1  UNL1        0.0534
     22 C          62.6978   83.0088   11.6167 C.ar    1  UNL1        0.0045
     23 C          63.0988   82.2137   12.8238 C.ar    1  UNL1        0.0001
     24 C          63.5243   82.9176   14.0781 C.ar    1  UNL1        0.0000
     25 C          63.5489   84.4166   14.1255 C.ar    1  UNL1        0.0001
     26 C          63.1479   85.2118   12.9185 C.ar    1  UNL1        0.0045
     27 C          60.9378   85.3997    7.2682 C.3     1  UNL1        0.0022
     28 C          60.1042   86.3052    8.1255 C.3     1  UNL1        0.0269
     29 C          58.6558   86.5214    7.8010 C.3     1  UNL1        0.0022
@<TRIPOS>BOND
     1    27    28    1
     2    28    29    1
     3    28    16    1
     4    16    17    1
     5    17    18   am
     6    18    19    2
     7    18    21    1
     8    21    22   ar
     9    22    23   ar
    10    23    24   ar
    11    24    25   ar
    12    25    26   ar
    13    16     1    1
    14     1     2    2
    15     1     3   am
    16     3     4    1
    17     4     5    1
    18     5     6    1
    19     6     9    1
    20     9    10   ar
    21    10    11   ar
    22    11    12   ar
    23    12    13    1
    24    12    14   ar
    25    14    15   ar
    26     6     7    1
    27     7     8    1
    28    26    21   ar
    29     8     3    1
    30    15     9   ar
    31    17    20    1
@<TRIPOS>MOLECULE
*****
 29 31 0 0 0
SMALL
GASTEIGER

@<TRIPOS>ATOM
      1 C          65.1777   91.9604   13.0196 C.2     1  UNL1        0.2435
      2 O          65.5475   93.3442   12.5739 O.2     1  UNL1       -0.2731
      3 N          64.2488   91.1275   12.1869 N.am    1  UNL1       -0.2782
      4 C          63.8790   89.7438   12.6325 C.3     1  UNL1        0.0938
      5 C          62.9500   88.9109   11.7999 C.3     1  UNL1        0.0259
      6 C          62.3909   89.4616   10.5216 C.3     1  UNL1        0.0257
      7 C          62.7607   90.8454   10.0760 C.3     1  UNL1        0.0259
      8 C          63.6897   91.6783   10.9086 C.3     1  UNL1        0.0938
      9 C          61.4620   88.6287    9.6889 C.ar    1  UNL1       -0.0223
     10 C          60.3973   89.2897    8.8646 C.ar    1  UNL1       -0.0034
     11 C          59.4684   88.4568    8.0318 C.ar    1  UNL1        0.0111
     12 C          59.6041   86.9629    8.0236 C.ar    1  UNL1        0.0577
     13 CL         58.6752   86.1300    7.1909 Cl      1  UNL1       -0.0822
     14 C          60.6688   86.3020    8.8480 C.ar    1  UNL1        0.0111
     15 C          61.5977   87.1349    9.6807 C.ar    1  UNL1       -0.0034
     16 C          65.7368   91.4096   14.2978 C.3     1  UNL1        0.1489
     17 N          65.3749   90.0221   14.7384 N.am    1  UNL1       -0.2948
     18 C          64.1279   89.7908   15.5392 C.2     1  UNL1        0.2461
     19 O          63.2427   90.9470   15.8995 O.2     1  UNL1       -0.2701
     20 H          65.9559   89.2633   14.5019 H       1  UNL1        0.1501
     21 C          63.7660   88.4034   15.9798 C.ar    1  UNL1        0.0534
     22 C          64.2258   87.2193   15.1820 C.ar    1  UNL1        0.0045
     23 C          63.8639   85.8319   15.6226 C.ar    1  UNL1        0.0001
     24 C          63.0422   85.6286   16.8609 C.ar    1  UNL1        0.0000
     25 C          62.5823   86.8127   17.6586 C.ar    1  UNL1        0.0001
     26 C          62.9442   88.2001   17.2180 C.ar    1  UNL1        0.0045
     27 C          66.1746   92.8238   16.4328 C.3     1  UNL1        0.0022
     28 C          66.6578   92.2462   15.1356 C.3     1  UNL1        0.0269
     29 C          68.0620   92.5052   14.6761 C.3     1  UNL1        0.0022
@<TRIPOS>BOND
     1    27    28    1
     2    28    29    1
     3    28    16    1
     4    16    17    1
     5    17    18   am
     6    18    19    2
     7    18    21    1
     8    21    22   ar
     9    22    23   ar
    10    23    24   ar
    11    24    25   ar
    12    25    26   ar
    13    16     1    1
    14     1     2    2
    15     1     3   am
    16     3     4    1
    17     4     5    1
    18     5     6    1
    19     6     9    1
    20     9    10   ar
    21    10    11   ar
    22    11    12   ar
    23    12    13    1
    24    12    14   ar
    25    14    15   ar
    26     6     7    1
    27     7     8    1
    28    26    21   ar
    29     8     3    1
    30    15     9   ar
    31    17    20    1
@<TRIPOS>MOLECULE
*****
 29 31 0 0 0
SMALL
GASTEIGER

@<TRIPOS>ATOM
      1 C          62.0374   89.6009   10.5983 C.2     1  UNL1        0.2435
      2 O          61.7160   90.2279    9.2740 O.2     1  UNL1       -0.2731
      3 N          63.1237   90.1774   11.4571 N.am    1  UNL1       -0.2782
      4 C          63.4450   89.5504   12.7813 C.3     1  UNL1        0.0938
      5 C          64.5314   90.1269   13.6402 C.3     1  UNL1        0.0259
      6 C          65.2963   91.3303   13.1748 C.3     1  UNL1        0.0257
      7 C          64.9750   91.9572   11.8505 C.3     1  UNL1        0.0259
      8 C          63.8886   91.3808   10.9917 C.3     1  UNL1        0.0938
      9 C          66.3827   91.9067   14.0336 C.ar    1  UNL1       -0.0223
     10 C          66.0550   92.4517   15.3921 C.ar    1  UNL1       -0.0034
     11 C          67.1413   93.0282   16.2510 C.ar    1  UNL1        0.0111
     12 C          68.5553   93.0597   15.7513 C.ar    1  UNL1        0.0577
     13 CL         69.6416   93.6361   16.6101 Cl      1  UNL1       -0.0822
     14 C          68.8829   92.5146   14.3927 C.ar    1  UNL1        0.0111
     15 C          67.7966   91.9382   13.5339 C.ar    1  UNL1       -0.0034
     16 C          61.2724   88.3975   11.0637 C.3     1  UNL1        0.1489
     17 N          62.0073   87.1740   11.5252 N.am    1  UNL1       -0.2948
     18 C          62.2061   86.0202   10.5875 C.2     1  UNL1        0.2461
     19 O          61.6700   86.0899    9.1884 O.2     1  UNL1       -0.2701
     20 H          62.3592   87.1282   12.4435 H       1  UNL1        0.1501
     21 C          62.9411   84.7967   11.0490 C.ar    1  UNL1        0.0534
     22 C          63.0626   84.5031   12.5150 C.ar    1  UNL1        0.0045
     23 C          63.7975   83.2796   12.9764 C.ar    1  UNL1        0.0001
     24 C          64.4109   82.3497   11.9719 C.ar    1  UNL1        0.0000
     25 C          64.2894   82.6433   10.5060 C.ar    1  UNL1        0.0001
     26 C          63.5545   83.8668   10.0445 C.ar    1  UNL1        0.0045
     27 C          59.0126   87.9070    9.8795 C.3     1  UNL1        0.0022
     28 C          59.7726   88.4176   11.0676 C.3     1  UNL1        0.0269
     29 C          59.0327   88.9483   12.2597 C.3     1  UNL1        0.0022
@<TRIPOS>BOND
     1    27    28    1
     2    28    29    1
     3    28    16    1
     4    16    17    1
     5    17    18   am
     6    18    19    2
     7    18    21    1
     8    21    22   ar
     9    22    23   ar
    10    23    24   ar
    11    24    25   ar
    12    25    26   ar
    13    16     1    1
    14     1     2    2
    15     1     3   am
    16     3     4    1
    17     4     5    1
    18     5     6    1
    19     6     9    1
    20     9    10   ar
    21    10    11   ar
    22    11    12   ar
    23    12    13    1
    24    12    14   ar
    25    14    15   ar
    26     6     7    1
    27     7     8    1
    28    26    21   ar
    29     8     3    1
    30    15     9   ar
    31    17    20    1
@<TRIPOS>MOLECULE
*****
 29 31 0 0 0
SMALL
GASTEIGER

@<TRIPOS>ATOM
      1 C          63.7308   89.4582   12.8407 C.2     1  UNL1        0.2435
      2 O          64.4264   90.1349   13.9845 O.2     1  UNL1       -0.2731
      3 N          63.5202   87.9733   12.8636 N.am    1  UNL1       -0.2782
      4 C          62.8247   87.2967   11.7199 C.3     1  UNL1        0.0938
      5 C          62.6141   85.8117   11.7428 C.3     1  UNL1        0.0259
      6 C          63.0991   85.0033   12.9095 C.3     1  UNL1        0.0257
      7 C          63.7948   85.6800   14.0534 C.3     1  UNL1        0.0259
      8 C          64.0053   87.1650   14.0304 C.3     1  UNL1        0.0938
      9 C          62.8886   83.5184   12.9325 C.ar    1  UNL1       -0.0223
     10 C          63.1820   82.7003   11.7100 C.ar    1  UNL1       -0.0034
     11 C          62.9715   81.2153   11.7329 C.ar    1  UNL1        0.0111
     12 C          62.4675   80.5484   12.9784 C.ar    1  UNL1        0.0577
     13 CL         62.2570   79.0635   13.0014 Cl      1  UNL1       -0.0822
     14 C          62.1741   81.3666   14.2010 C.ar    1  UNL1        0.0111
     15 C          62.3846   82.8515   14.1780 C.ar    1  UNL1       -0.0034
     16 C          63.2457   90.2666   11.6739 C.3     1  UNL1        0.1489
     17 N          64.2124   91.0983   10.8841 N.am    1  UNL1       -0.2948
     18 C          64.9509   92.2228   11.5476 C.2     1  UNL1        0.2461
     19 O          64.7227   92.5155   13.0009 O.2     1  UNL1       -0.2701
     20 H          64.3622   90.9062    9.9302 H       1  UNL1        0.1501
     21 C          65.9175   93.0545   10.7577 C.ar    1  UNL1        0.0534
     22 C          67.0985   92.4073   10.0972 C.ar    1  UNL1        0.0045
     23 C          68.0651   93.2391    9.3074 C.ar    1  UNL1        0.0001
     24 C          67.8507   94.7181    9.1781 C.ar    1  UNL1        0.0000
     25 C          66.6697   95.3653    9.8386 C.ar    1  UNL1        0.0001
     26 C          65.7031   94.5335   10.6284 C.ar    1  UNL1        0.0045
     27 C          60.7429   90.1794   12.3650 C.3     1  UNL1        0.0022
     28 C          61.7941   90.2432   11.2970 C.3     1  UNL1        0.0269
     29 C          61.3937   90.2835    9.8520 C.3     1  UNL1        0.0022
@<TRIPOS>BOND
     1    27    28    1
     2    28    29    1
     3    28    16    1
     4    16    17    1
     5    17    18   am
     6    18    19    2
     7    18    21    1
     8    21    22   ar
     9    22    23   ar
    10    23    24   ar
    11    24    25   ar
    12    25    26   ar
    13    16     1    1
    14     1     2    2
    15     1     3   am
    16     3     4    1
    17     4     5    1
    18     5     6    1
    19     6     9    1
    20     9    10   ar
    21    10    11   ar
    22    11    12   ar
    23    12    13    1
    24    12    14   ar
    25    14    15   ar
    26     6     7    1
    27     7     8    1
    28    26    21   ar
    29     8     3    1
    30    15     9   ar
    31    17    20    1
@<TRIPOS>MOLECULE
*****
 29 31 0 0 0
SMALL
GASTEIGER

@<TRIPOS>ATOM
      1 C          63.7467   87.6158   13.6024 C.2     1  UNL1        0.2435
      2 O          64.3094   87.9302   14.9569 O.2     1  UNL1       -0.2731
      3 N          63.5795   86.1884   13.1727 N.am    1  UNL1       -0.2782
      4 C          63.0168   85.8740   11.8183 C.3     1  UNL1        0.0938
      5 C          62.8495   84.4466   11.3885 C.3     1  UNL1        0.0259
      6 C          63.2449   83.3337   12.3132 C.3     1  UNL1        0.0257
      7 C          63.8076   83.6482   13.6676 C.3     1  UNL1        0.0259
      8 C          63.9749   85.0755   14.0974 C.3     1  UNL1        0.0938
      9 C          63.0777   81.9064   11.8834 C.ar    1  UNL1       -0.0223
     10 C          63.2901   81.5255   10.4483 C.ar    1  UNL1       -0.0034
     11 C          63.1228   80.0981   10.0185 C.ar    1  UNL1        0.0111
     12 C          62.7431   79.0517   11.0239 C.ar    1  UNL1        0.0577
     13 CL         62.5759   77.6244   10.5941 Cl      1  UNL1       -0.0822
     14 C          62.5307   79.4327   12.4591 C.ar    1  UNL1        0.0111
     15 C          62.6980   80.8600   12.8888 C.ar    1  UNL1       -0.0034
     16 C          63.3513   88.7287   12.6777 C.3     1  UNL1        0.1489
     17 N          62.6860   88.4166   11.3700 N.am    1  UNL1       -0.2948
     18 C          61.2194   88.6772   11.1937 C.2     1  UNL1        0.2461
     19 O          60.4181   89.2498   12.3250 O.2     1  UNL1       -0.2701
     20 H          63.2120   88.0408   10.6275 H       1  UNL1        0.1501
     21 C          60.5541   88.3651    9.8860 C.ar    1  UNL1        0.0534
     22 C          60.2624   86.9417    9.5138 C.ar    1  UNL1        0.0045
     23 C          59.5971   86.6297    8.2061 C.ar    1  UNL1        0.0001
     24 C          59.2236   87.7411    7.2706 C.ar    1  UNL1        0.0000
     25 C          59.5153   89.1646    7.6428 C.ar    1  UNL1        0.0001
     26 C          60.1806   89.4766    8.9505 C.ar    1  UNL1        0.0045
     27 C          63.9257   91.1703   12.0007 C.3     1  UNL1        0.0022
     28 C          63.6212   90.1536   13.0607 C.3     1  UNL1        0.0269
     29 C          63.5866   90.5619   14.5037 C.3     1  UNL1        0.0022
@<TRIPOS>BOND
     1    27    28    1
     2    28    29    1
     3    28    16    1
     4    16    17    1
     5    17    18   am
     6    18    19    2
     7    18    21    1
     8    21    22   ar
     9    22    23   ar
    10    23    24   ar
    11    24    25   ar
    12    25    26   ar
    13    16     1    1
    14     1     2    2
    15     1     3   am
    16     3     4    1
    17     4     5    1
    18     5     6    1
    19     6     9    1
    20     9    10   ar
    21    10    11   ar
    22    11    12   ar
    23    12    13    1
    24    12    14   ar
    25    14    15   ar
    26     6     7    1
    27     7     8    1
    28    26    21   ar
    29     8     3    1
    30    15     9   ar
    31    17    20    1
@<TRIPOS>MOLECULE
*****
 29 31 0 0 0
SMALL
GASTEIGER

@<TRIPOS>ATOM
      1 C          63.2628   90.6158   11.6329 C.2     1  UNL1        0.2435
      2 O          62.5081   91.2159   10.4837 O.2     1  UNL1       -0.2731
      3 N          63.1449   89.1490   11.9234 N.am    1  UNL1       -0.2782
      4 C          63.8996   88.5490   13.0725 C.3     1  UNL1        0.0938
      5 C          63.7817   87.0821   13.3630 C.3     1  UNL1        0.0259
      6 C          62.9091   86.2152   12.5045 C.3     1  UNL1        0.0257
      7 C          62.1544   86.8153   11.3553 C.3     1  UNL1        0.0259
      8 C          62.2723   88.2821   11.0648 C.3     1  UNL1        0.0938
      9 C          62.7911   84.7484   12.7950 C.ar    1  UNL1       -0.0223
     10 C          62.8993   83.7518   11.6792 C.ar    1  UNL1       -0.0034
     11 C          62.7814   82.2849   11.9697 C.ar    1  UNL1        0.0111
     12 C          62.5553   81.8146   13.3760 C.ar    1  UNL1        0.0577
     13 CL         62.4374   80.3478   13.6665 Cl      1  UNL1       -0.0822
     14 C          62.4472   82.8113   14.4918 C.ar    1  UNL1        0.0111
     15 C          62.5651   84.2781   14.2013 C.ar    1  UNL1       -0.0034
     16 C          64.1354   91.4827   12.4914 C.3     1  UNL1        0.1489
     17 N          64.6151   92.8074   11.9766 N.am    1  UNL1       -0.2948
     18 C          65.8587   92.8817   11.1413 C.2     1  UNL1        0.2461
     19 O          66.6227   91.6313   10.8208 O.2     1  UNL1       -0.2701
     20 H          64.1137   93.6281   12.1870 H       1  UNL1        0.1501
     21 C          66.3384   94.2065   10.6265 C.ar    1  UNL1        0.0534
     22 C          67.1481   94.2726    9.3656 C.ar    1  UNL1        0.0045
     23 C          67.6277   95.5973    8.8508 C.ar    1  UNL1        0.0001
     24 C          67.2978   96.8560    9.5971 C.ar    1  UNL1        0.0000
     25 C          66.4882   96.7899   10.8581 C.ar    1  UNL1        0.0001
     26 C          66.0085   95.4652   11.3728 C.ar    1  UNL1        0.0045
     27 C          65.9784   90.8978   14.2266 C.3     1  UNL1        0.0022
     28 C          64.5283   91.0248   13.8647 C.3     1  UNL1        0.0269
     29 C          63.4711   90.6940   14.8761 C.3     1  UNL1        0.0022
@<TRIPOS>BOND
     1    27    28    1
     2    28    29    1
     3    28    16    1
     4    16    17    1
     5    17    18   am
     6    18    19    2
     7    18    21    1
     8    21    22   ar
     9    22    23   ar
    10    23    24   ar
    11    24    25   ar
    12    25    26   ar
    13    16     1    1
    14     1     2    2
    15     1     3   am
    16     3     4    1
    17     4     5    1
    18     5     6    1
    19     6     9    1
    20     9    10   ar
    21    10    11   ar
    22    11    12   ar
    23    12    13    1
    24    12    14   ar
    25    14    15   ar
    26     6     7    1
    27     7     8    1
    28    26    21   ar
    29     8     3    1
    30    15     9   ar
    31    17    20    1
@<TRIPOS>MOLECULE
*****
 29 31 0 0 0
SMALL
GASTEIGER

@<TRIPOS>ATOM
      1 C          63.5509   88.0156   14.8561 C.2     1  UNL1        0.2435
      2 O          63.3651   88.1999   16.3332 O.2     1  UNL1       -0.2731
      3 N          63.4276   86.6494   14.2494 N.am    1  UNL1       -0.2782
      4 C          63.6134   86.4652   12.7724 C.3     1  UNL1        0.0938
      5 C          63.4902   85.0989   12.1656 C.3     1  UNL1        0.0259
      6 C          63.1812   83.9169   13.0358 C.3     1  UNL1        0.0257
      7 C          62.9955   84.1011   14.5129 C.3     1  UNL1        0.0259
      8 C          63.1187   85.4674   15.1196 C.3     1  UNL1        0.0938
      9 C          63.0580   82.5507   12.4291 C.ar    1  UNL1       -0.0223
     10 C          62.6438   81.3868   13.2798 C.ar    1  UNL1       -0.0034
     11 C          62.5206   80.0205   12.6731 C.ar    1  UNL1        0.0111
     12 C          62.8116   79.8181   11.2156 C.ar    1  UNL1        0.0577
     13 CL         62.6883   78.4519   10.6088 Cl      1  UNL1       -0.0822
     14 C          63.2257   80.9821   10.3648 C.ar    1  UNL1        0.0111
     15 C          63.3490   82.3483   10.9715 C.ar    1  UNL1       -0.0034
     16 C          63.8598   89.1977   13.9859 C.3     1  UNL1        0.1489
     17 N          65.1709   89.9124   14.1294 N.am    1  UNL1       -0.2948
     18 C          65.2472   91.1893   14.9127 C.2     1  UNL1        0.2461
     19 O          64.0125   91.7516   15.5526 O.2     1  UNL1       -0.2701
     20 H          65.9812   89.5433   13.7094 H       1  UNL1        0.1501
     21 C          66.5582   91.9040   15.0562 C.ar    1  UNL1        0.0534
     22 C          66.7756   92.8497   16.2000 C.ar    1  UNL1        0.0045
     23 C          68.0866   93.5643   16.3434 C.ar    1  UNL1        0.0001
     24 C          69.1802   93.3332   15.3430 C.ar    1  UNL1        0.0000
     25 C          68.9627   92.3875   14.1993 C.ar    1  UNL1        0.0001
     26 C          67.6518   91.6728   14.0558 C.ar    1  UNL1        0.0045
     27 C          61.3940   89.4323   13.2021 C.3     1  UNL1        0.0022
     28 C          62.8579   89.6651   12.9722 C.3     1  UNL1        0.0269
     29 C          63.3198   90.3651   11.7286 C.3     1  UNL1        0.0022
@<TRIPOS>BOND
     1    27    28    1
     2    28    29    1
     3    28    16    1
     4    16    17    1
     5    17    18   am
     6    18    19    2
     7    18    21    1
     8    21    22   ar
     9    22    23   ar
    10    23    24   ar
    11    24    25   ar
    12    25    26   ar
    13    16     1    1
    14     1     2    2
    15     1     3   am
    16     3     4    1
    17     4     5    1
    18     5     6    1
    19     6     9    1
    20     9    10   ar
    21    10    11   ar
    22    11    12   ar
    23    12    13    1
    24    12    14   ar
    25    14    15   ar
    26     6     7    1
    27     7     8    1
    28    26    21   ar
    29     8     3    1
    30    15     9   ar
    31    17    20    1
@<TRIPOS>MOLECULE
*****
 29 31 0 0 0
SMALL
GASTEIGER

@<TRIPOS>ATOM
      1 C          61.2736   93.4606   -0.7839 C.2     1  UNL1        0.2435
      2 O          62.2485   92.8694   -1.7586 O.2     1  UNL1       -0.2731
      3 N          59.9121   93.8850   -1.2489 N.am    1  UNL1       -0.2782
      4 C          58.9372   94.4762   -0.2742 C.3     1  UNL1        0.0938
      5 C          57.5757   94.9007   -0.7393 C.3     1  UNL1        0.0259
      6 C          57.1892   94.7339   -2.1790 C.3     1  UNL1        0.0257
      7 C          58.1641   94.1427   -3.1537 C.3     1  UNL1        0.0259
      8 C          59.5256   93.7182   -2.6886 C.3     1  UNL1        0.0938
      9 C          55.8277   95.1583   -2.6440 C.ar    1  UNL1       -0.0223
     10 C          54.7090   95.3032   -1.6555 C.ar    1  UNL1       -0.0034
     11 C          53.3474   95.7276   -2.1205 C.ar    1  UNL1        0.0111
     12 C          53.1048   96.0072   -3.5741 C.ar    1  UNL1        0.0577
     13 CL         51.7433   96.4316   -4.0391 Cl      1  UNL1       -0.0822
     14 C          54.2236   95.8623   -4.5627 C.ar    1  UNL1        0.0111
     15 C          55.5851   95.4379   -4.0976 C.ar    1  UNL1       -0.0034
     16 C          61.6601   93.6274    0.6558 C.3     1  UNL1        0.1489
     17 N          61.1409   92.6702    1.6875 N.am    1  UNL1       -0.2948
     18 C          60.3066   93.1755    2.8270 C.2     1  UNL1        0.2461
     19 O          59.9914   94.6380    2.9349 O.2     1  UNL1       -0.2701
     20 H          61.3478   91.7103    1.6167 H       1  UNL1        0.1501
     21 C          59.7874   92.2183    3.8587 C.ar    1  UNL1        0.0534
     22 C          60.7357   91.3094    4.5831 C.ar    1  UNL1        0.0045
     23 C          60.2165   90.3523    5.6147 C.ar    1  UNL1        0.0001
     24 C          58.7491   90.3040    5.9219 C.ar    1  UNL1        0.0000
     25 C          57.8009   91.2128    5.1975 C.ar    1  UNL1        0.0001
     26 C          58.3200   92.1700    4.1659 C.ar    1  UNL1        0.0045
     27 C          62.2287   96.1623    0.6824 C.3     1  UNL1        0.0022
     28 C          62.5657   94.7513    1.0639 C.3     1  UNL1        0.0269
     29 C          63.8084   94.4643    1.8534 C.3     1  UNL1        0.0022
@<TRIPOS>BOND
     1    27    28    1
     2    28    29    1
     3    28    16    1
     4    16    17    1
     5    17    18   am
     6    18    19    2
     7    18    21    1
     8    21    22   ar
     9    22    23   ar
    10    23    24   ar
    11    24    25   ar
    12    25    26   ar
    13    16     1    1
    14     1     2    2
    15     1     3   am
    16     3     4    1
    17     4     5    1
    18     5     6    1
    19     6     9    1
    20     9    10   ar
    21    10    11   ar
    22    11    12   ar
    23    12    13    1
    24    12    14   ar
    25    14    15   ar
    26     6     7    1
    27     7     8    1
    28    26    21   ar
    29     8     3    1
    30    15     9   ar
    31    17    20    1
