@<TRIPOS>MOLECULE
*****
 43 48 0 0 0
SMALL
GASTEIGER

@<TRIPOS>ATOM
      1 C          61.0807   87.5188    9.1242 C.ar    1  UNL1        0.1348
      2 C          60.8231   86.0965    9.5248 C.ar    1  UNL1        0.0346
      3 C          61.3653   85.5725   10.8215 C.ar    1  UNL1        0.0065
      4 C          62.1652   86.4710   11.7177 C.ar    1  UNL1        0.0432
      5 C          62.4228   87.8933   11.3171 C.ar    1  UNL1        0.1256
      6 N          61.8806   88.4173   10.0203 N.ar    1  UNL1       -0.2222
      7 C          62.7074   85.9470   13.0144 C.ar    1  UNL1        0.0850
      8 C          63.3229   84.5964   13.2312 C.ar    1  UNL1        0.0991
      9 N          63.7252   84.4963   14.6728 N.ar    1  UNL1       -0.2265
     10 C          63.3583   85.7852   15.3469 C.ar    1  UNL1        0.1474
     11 C          63.5157   86.2582   16.7616 C.ar    1  UNL1        0.0332
     12 C          63.0441   87.6276   17.1515 C.ar    1  UNL1       -0.0174
     13 C          63.2015   88.1007   18.5662 C.3     1  UNL1        0.0312
     14 C          62.4150   88.5243   16.1266 C.ar    1  UNL1        0.0149
     15 C          62.2576   88.0512   14.7118 C.ar    1  UNL1        0.0811
     16 N          62.7292   86.6817   14.3220 N.ar    1  UNL1       -0.2888
     17 C          63.5044   83.5326   12.1894 C.ar    1  UNL1        0.0222
     18 C          62.7406   82.2456   12.2906 C.ar    1  UNL1        0.0222
     19 C          62.9219   81.1819   11.2489 C.ar    1  UNL1        0.0989
     20 N          63.8672   81.4051   10.1057 N.ar    1  UNL1       -0.2423
     21 C          64.6310   82.6920   10.0044 C.ar    1  UNL1        0.0989
     22 C          64.4496   83.7559   11.0463 C.ar    1  UNL1        0.0222
     23 C          59.9017   89.3999    7.7746 C.2     1  UNL1        0.2414
     24 O          59.8072   90.2331    9.0183 O.2     1  UNL1       -0.2733
     25 N          60.5385   88.0428    7.8275 N.am    1  UNL1       -0.2682
     26 H          60.6006   87.4960    7.0112 H       1  UNL1        0.1563
     27 C          59.3595   89.9239    6.4779 C.3     1  UNL1        0.1319
     28 C          60.2988   90.4070    5.4127 C.3     1  UNL1        0.0270
     29 C          57.2982   90.9466    5.2717 C.3     1  UNL1        0.0862
     30 N          57.8781   89.9648    6.2463 N.3     1  UNL1       -0.2902
     31 H          57.6043   89.0357    5.9264 H       1  UNL1        0.1237
     32 C          63.2227   88.7918   12.2132 C.1     1  UNL1       -0.0404
     33 C          64.0226   89.6902   13.1093 C.1     1  UNL1       -0.0583
     34 C          64.8224   90.5887   14.0054 C.ar    1  UNL1        0.0421
     35 C          64.2137   91.1237   15.2677 C.ar    1  UNL1        0.0098
     36 C          65.0135   92.0221   16.1638 C.ar    1  UNL1        0.0197
     37 C          66.4221   92.3856   15.7977 C.ar    1  UNL1        0.0813
     38 N          67.2218   93.2840   16.6939 N.ar    1  UNL1       -0.2438
     39 C          68.6303   93.6475   16.3277 C.ar    1  UNL1        0.0988
     40 C          69.2390   93.1125   15.0655 C.ar    1  UNL1        0.0207
     41 C          68.4392   92.2140   14.1694 C.ar    1  UNL1        0.0031
     42 C          67.0308   91.8506   14.5355 C.ar    1  UNL1        0.0183
     43 C          66.2309   90.9521   13.6393 C.ar    1  UNL1        0.0097
@<TRIPOS>BOND
     1    29    30    1
     2    30    27    1
     3    27    28    1
     4    27    23    1
     5    23    24    2
     6    23    25   am
     7    25     1    1
     8     1     2   ar
     9     2     3   ar
    10     3     4   ar
    11     4     7    1
    12     7     8   ar
    13     8    17    1
    14    17    18   ar
    15    18    19   ar
    16    19    20   ar
    17    20    21   ar
    18    21    22   ar
    19     8     9   ar
    20     9    10   ar
    21    10    11   ar
    22    11    12   ar
    23    12    13    1
    24    12    14   ar
    25    14    15   ar
    26    15    16   ar
    27     4     5   ar
    28     5    32    1
    29    32    33    3
    30    33    34    1
    31    34    35   ar
    32    35    36   ar
    33    36    37   ar
    34    37    38   ar
    35    38    39   ar
    36    39    40   ar
    37    40    41   ar
    38    41    42   ar
    39    42    43   ar
    40     5     6   ar
    41     6     1   ar
    42    16     7   ar
    43    43    34   ar
    44    22    17   ar
    45    16    10   ar
    46    42    37   ar
    47    30    31    1
    48    25    26    1
@<TRIPOS>MOLECULE
*****
 43 48 0 0 0
SMALL
GASTEIGER

@<TRIPOS>ATOM
      1 C          59.7258   90.0664    6.2112 C.ar    1  UNL1        0.1348
      2 C          59.2132   88.6594    6.2985 C.ar    1  UNL1        0.0346
      3 C          59.6507   87.7703    7.4246 C.ar    1  UNL1        0.0065
      4 C          60.6010   88.2882    8.4633 C.ar    1  UNL1        0.0432
      5 C          61.1136   89.6952    8.3760 C.ar    1  UNL1        0.1256
      6 N          60.6760   90.5843    7.2498 N.ar    1  UNL1       -0.2222
      7 C          61.0385   87.3991    9.5894 C.ar    1  UNL1        0.0850
      8 C          60.6339   87.5339   11.0275 C.ar    1  UNL1        0.0991
      9 N          61.3028   86.4372   11.8020 N.ar    1  UNL1       -0.2265
     10 C          62.1209   85.6247   10.8425 C.ar    1  UNL1        0.1474
     11 C          62.9935   84.4203   11.0373 C.ar    1  UNL1        0.0332
     12 C          63.7027   83.8103    9.8648 C.ar    1  UNL1       -0.0174
     13 C          64.5753   82.6059   10.0596 C.3     1  UNL1        0.0312
     14 C          63.5394   84.4048    8.4973 C.ar    1  UNL1        0.0149
     15 C          62.6668   85.6092    8.3025 C.ar    1  UNL1        0.0811
     16 N          61.9575   86.2192    9.4751 N.ar    1  UNL1       -0.2888
     17 C          59.7206   88.5814   11.5920 C.ar    1  UNL1        0.0222
     18 C          58.7321   88.2179   12.6601 C.ar    1  UNL1        0.0222
     19 C          57.8188   89.2653   13.2246 C.ar    1  UNL1        0.0989
     20 N          57.8941   90.6764   12.7211 N.ar    1  UNL1       -0.2423
     21 C          58.8825   91.0398   11.6531 C.ar    1  UNL1        0.0989
     22 C          59.7959   89.9923   11.0885 C.ar    1  UNL1        0.0222
     23 C          60.3121   91.6375    4.2267 C.2     1  UNL1        0.2414
     24 O          61.7734   91.4304    4.4945 O.2     1  UNL1       -0.2733
     25 N          59.2883   90.9555    5.0851 N.am    1  UNL1       -0.2682
     26 H          58.3292   91.0914    4.9094 H       1  UNL1        0.1563
     27 C          59.8745   92.5266    3.1007 C.3     1  UNL1        0.1319
     28 C          59.7841   94.0096    3.3076 C.3     1  UNL1        0.0270
     29 C          60.1601   92.4719    0.5189 C.3     1  UNL1        0.0862
     30 N          59.5275   91.9328    1.7677 N.3     1  UNL1       -0.2902
     31 H          59.7669   90.9425    1.8151 H       1  UNL1        0.1237
     32 C          62.0638   90.2131    9.4147 C.1     1  UNL1       -0.0404
     33 C          63.0140   90.7310   10.4533 C.1     1  UNL1       -0.0583
     34 C          63.9642   91.2489   11.4920 C.ar    1  UNL1        0.0421
     35 C          65.2016   91.9871   11.0750 C.ar    1  UNL1        0.0098
     36 C          66.1519   92.5050   12.1136 C.ar    1  UNL1        0.0197
     37 C          65.8647   92.2848   13.5693 C.ar    1  UNL1        0.0813
     38 N          66.8149   92.8027   14.6080 N.ar    1  UNL1       -0.2438
     39 C          66.5278   92.5825   16.0636 C.ar    1  UNL1        0.0988
     40 C          65.2904   91.8443   16.4807 C.ar    1  UNL1        0.0207
     41 C          64.3401   91.3264   15.4420 C.ar    1  UNL1        0.0031
     42 C          64.6273   91.5466   13.9864 C.ar    1  UNL1        0.0183
     43 C          63.6770   91.0287   12.9477 C.ar    1  UNL1        0.0097
@<TRIPOS>BOND
     1    29    30    1
     2    30    27    1
     3    27    28    1
     4    27    23    1
     5    23    24    2
     6    23    25   am
     7    25     1    1
     8     1     2   ar
     9     2     3   ar
    10     3     4   ar
    11     4     7    1
    12     7     8   ar
    13     8    17    1
    14    17    18   ar
    15    18    19   ar
    16    19    20   ar
    17    20    21   ar
    18    21    22   ar
    19     8     9   ar
    20     9    10   ar
    21    10    11   ar
    22    11    12   ar
    23    12    13    1
    24    12    14   ar
    25    14    15   ar
    26    15    16   ar
    27     4     5   ar
    28     5    32    1
    29    32    33    3
    30    33    34    1
    31    34    35   ar
    32    35    36   ar
    33    36    37   ar
    34    37    38   ar
    35    38    39   ar
    36    39    40   ar
    37    40    41   ar
    38    41    42   ar
    39    42    43   ar
    40     5     6   ar
    41     6     1   ar
    42    16     7   ar
    43    43    34   ar
    44    22    17   ar
    45    16    10   ar
    46    42    37   ar
    47    30    31    1
    48    25    26    1
@<TRIPOS>MOLECULE
*****
 43 48 0 0 0
SMALL
GASTEIGER

@<TRIPOS>ATOM
      1 C          59.6139   89.6564    7.9502 C.ar    1  UNL1        0.1348
      2 C          59.3871   88.2049    8.2532 C.ar    1  UNL1        0.0346
      3 C          60.2080   87.5214    9.3062 C.ar    1  UNL1        0.0065
      4 C          61.2558   88.2894   10.0563 C.ar    1  UNL1        0.0432
      5 C          61.4826   89.7408    9.7533 C.ar    1  UNL1        0.1256
      6 N          60.6616   90.4243    8.7002 N.ar    1  UNL1       -0.2222
      7 C          62.0767   87.6058   11.1093 C.ar    1  UNL1        0.0850
      8 C          62.7801   86.2892   10.9622 C.ar    1  UNL1        0.0991
      9 N          63.4765   85.9885   12.2563 N.ar    1  UNL1       -0.2265
     10 C          63.2034   87.1195   13.2032 C.ar    1  UNL1        0.1474
     11 C          63.6307   87.3682   14.6193 C.ar    1  UNL1        0.0332
     12 C          63.1930   88.6164   15.3266 C.ar    1  UNL1       -0.0174
     13 C          63.6204   88.8652   16.7428 C.3     1  UNL1        0.0312
     14 C          62.3279   89.6160   14.6177 C.ar    1  UNL1        0.0149
     15 C          61.9005   89.3672   13.2016 C.ar    1  UNL1        0.0811
     16 N          62.3383   88.1190   12.4943 N.ar    1  UNL1       -0.2888
     17 C          62.7861   85.4249    9.7363 C.ar    1  UNL1        0.0222
     18 C          62.1855   85.9314    8.4585 C.ar    1  UNL1        0.0222
     19 C          62.1915   85.0672    7.2326 C.ar    1  UNL1        0.0989
     20 N          62.7981   83.6963    7.2844 N.ar    1  UNL1       -0.2423
     21 C          63.3987   83.1897    8.5621 C.ar    1  UNL1        0.0989
     22 C          63.3927   84.0540    9.7881 C.ar    1  UNL1        0.0222
     23 C          59.4372   90.7926    5.6204 C.2     1  UNL1        0.2414
     24 O          60.9024   90.5617    5.3967 O.2     1  UNL1       -0.2733
     25 N          58.7930   90.3399    6.8972 N.am    1  UNL1       -0.2682
     26 H          57.8314   90.4914    7.0440 H       1  UNL1        0.1563
     27 C          58.6163   91.4761    4.5674 C.3     1  UNL1        0.1319
     28 C          57.1514   91.7082    4.7916 C.3     1  UNL1        0.0270
     29 C          60.0489   93.2032    3.2578 C.3     1  UNL1        0.0862
     30 N          59.2603   91.9276    3.2901 N.3     1  UNL1       -0.2902
     31 H          59.8936   91.1824    3.0002 H       1  UNL1        0.1237
     32 C          62.5303   90.5088   10.5032 C.1     1  UNL1       -0.0404
     33 C          63.5780   91.2767   11.2532 C.1     1  UNL1       -0.0583
     34 C          64.6257   92.0447   12.0033 C.ar    1  UNL1        0.0421
     35 C          65.2367   93.2714   11.3935 C.ar    1  UNL1        0.0098
     36 C          66.2844   94.0395   12.1435 C.ar    1  UNL1        0.0197
     37 C          66.7211   93.5807   13.5033 C.ar    1  UNL1        0.0813
     38 N          67.7687   94.3487   14.2533 N.ar    1  UNL1       -0.2438
     39 C          68.2054   93.8900   15.6130 C.ar    1  UNL1        0.0988
     40 C          67.5943   92.6633   16.2228 C.ar    1  UNL1        0.0207
     41 C          66.5467   91.8953   15.4728 C.ar    1  UNL1        0.0031
     42 C          66.1100   92.3540   14.1131 C.ar    1  UNL1        0.0183
     43 C          65.0623   91.5860   13.3630 C.ar    1  UNL1        0.0097
@<TRIPOS>BOND
     1    29    30    1
     2    30    27    1
     3    27    28    1
     4    27    23    1
     5    23    24    2
     6    23    25   am
     7    25     1    1
     8     1     2   ar
     9     2     3   ar
    10     3     4   ar
    11     4     7    1
    12     7     8   ar
    13     8    17    1
    14    17    18   ar
    15    18    19   ar
    16    19    20   ar
    17    20    21   ar
    18    21    22   ar
    19     8     9   ar
    20     9    10   ar
    21    10    11   ar
    22    11    12   ar
    23    12    13    1
    24    12    14   ar
    25    14    15   ar
    26    15    16   ar
    27     4     5   ar
    28     5    32    1
    29    32    33    3
    30    33    34    1
    31    34    35   ar
    32    35    36   ar
    33    36    37   ar
    34    37    38   ar
    35    38    39   ar
    36    39    40   ar
    37    40    41   ar
    38    41    42   ar
    39    42    43   ar
    40     5     6   ar
    41     6     1   ar
    42    16     7   ar
    43    43    34   ar
    44    22    17   ar
    45    16    10   ar
    46    42    37   ar
    47    30    31    1
    48    25    26    1
