@<TRIPOS>MOLECULE
*****
 28 31 0 0 0
SMALL
GASTEIGER

@<TRIPOS>ATOM
      1 C          62.8322   86.0510   16.5992 C.2     1  UNL1        0.2401
      2 O          62.0390   86.1027   17.8714 O.2     1  UNL1       -0.2734
      3 N          63.3856   87.3139   16.0086 N.am    1  UNL1       -0.2750
      4 C          63.1458   88.6284   16.6900 C.3     1  UNL1        0.1149
      5 C          63.6993   89.8913   16.0993 C.3     1  UNL1        0.1121
      6 N          64.4924   89.8396   14.8273 N.pl3   1  UNL1       -0.3071
      7 C          64.7321   88.5250   14.1458 C.3     1  UNL1        0.1121
      8 C          64.1787   87.2622   14.7365 C.3     1  UNL1        0.1149
      9 C          65.0458   91.1025   14.2365 C.2     1  UNL1        0.0295
     10 C          65.8475   92.0408   15.0890 C.2     1  UNL1        0.0120
     11 C          66.4010   93.3037   14.4983 C.2     1  UNL1        0.0216
     12 C          66.1526   93.6282   13.0550 C.2     1  UNL1        0.1008
     13 N          66.5679   94.7897   12.2016 N.2     1  UNL1       -0.1482
     14 N          66.0227   94.5693   10.8217 N.2     1  UNL1       -0.1467
     15 C          65.2706   93.2715   10.8222 C.2     1  UNL1        0.1198
     16 C          65.3508   92.6898   12.2025 C.2     1  UNL1        0.0238
     17 C          64.7974   91.4270   12.7933 C.3     1  UNL1        0.0705
     18 N          64.4384   84.1183   15.9401 N.3     1  UNL1       -0.3148
     19 C          63.0719   84.7364   15.9178 C.3     1  UNL1        0.1329
     20 H          64.4198   83.2338   15.4324 H       1  UNL1        0.1192
     21 H          64.7197   83.9500   16.9060 H       1  UNL1        0.1192
     22 C          61.9451   84.0400   15.2140 C.3     1  UNL1        0.0512
     23 C          62.2366   83.0791   14.0997 C.ar    1  UNL1       -0.0203
     24 C          62.0115   81.6094   14.2985 C.ar    1  UNL1       -0.0042
     25 C          62.3030   80.6485   13.1843 C.ar    1  UNL1       -0.0003
     26 C          62.8197   81.1572   11.8711 C.ar    1  UNL1       -0.0000
     27 C          63.0448   82.6267   11.6723 C.ar    1  UNL1       -0.0003
     28 C          62.7533   83.5877   12.7866 C.ar    1  UNL1       -0.0042
@<TRIPOS>BOND
     1    19    18    1
     2    19    22    1
     3    22    23    1
     4    23    24   ar
     5    24    25   ar
     6    25    26   ar
     7    26    27   ar
     8    27    28   ar
     9    19     1    1
    10     1     2    2
    11     1     3   am
    12     3     4    1
    13     4     5    1
    14     5     6    1
    15     6     9    1
    16     9    10    2
    17    10    11    1
    18    11    12    2
    19    12    13    1
    20    13    14    2
    21    14    15    1
    22    15    16    2
    23    16    17    1
    24     6     7    1
    25     7     8    1
    26    28    23   ar
    27     8     3    1
    28    17     9    1
    29    16    12    1
    30    18    20    1
    31    18    21    1
@<TRIPOS>MOLECULE
*****
 28 31 0 0 0
SMALL
GASTEIGER

@<TRIPOS>ATOM
      1 C          63.0833   90.4388   12.2037 C.2     1  UNL1        0.2401
      2 O          62.3369   91.2214   11.1642 O.2     1  UNL1       -0.2734
      3 N          63.0502   88.9394   12.1809 N.am    1  UNL1       -0.2750
      4 C          62.2706   88.2225   11.1188 C.3     1  UNL1        0.1149
      5 C          62.2374   86.7229   11.0961 C.3     1  UNL1        0.1121
      6 N          62.9838   85.9405   12.1355 N.pl3   1  UNL1       -0.3071
      7 C          63.7634   86.6574   13.1977 C.3     1  UNL1        0.1121
      8 C          63.7966   88.1568   13.2204 C.3     1  UNL1        0.1149
      9 C          62.9507   84.4409   12.1129 C.2     1  UNL1        0.0295
     10 C          63.4964   83.6965   10.9306 C.2     1  UNL1        0.0120
     11 C          63.4633   82.1969   10.9080 C.2     1  UNL1        0.0216
     12 C          62.8843   81.4420   12.0677 C.2     1  UNL1        0.1008
     13 N          62.7169   79.9741   12.3266 N.2     1  UNL1       -0.1482
     14 N          62.0676   79.8114   13.6690 N.2     1  UNL1       -0.1467
     15 C          61.8338   81.1787   14.2396 C.2     1  UNL1        0.1198
     16 C          62.3385   82.1866   13.2499 C.2     1  UNL1        0.0238
     17 C          62.3717   83.6860   13.2725 C.3     1  UNL1        0.0705
     18 N          63.4231   91.0815   14.6979 N.3     1  UNL1       -0.3148
     19 C          63.8629   91.1557   13.2658 C.3     1  UNL1        0.1329
     20 H          64.0634   91.6229   15.2787 H       1  UNL1        0.1192
     21 H          63.4259   90.1087   15.0044 H       1  UNL1        0.1192
     22 C          65.0825   91.9469   12.8958 C.3     1  UNL1        0.0512
     23 C          66.1865   92.1338   13.8939 C.ar    1  UNL1       -0.0203
     24 C          67.6077   91.8584   13.5008 C.ar    1  UNL1       -0.0042
     25 C          68.7117   92.0454   14.4989 C.ar    1  UNL1       -0.0003
     26 C          68.3944   92.5077   15.8903 C.ar    1  UNL1       -0.0000
     27 C          66.9734   92.7830   16.2834 C.ar    1  UNL1       -0.0003
     28 C          65.8693   92.5960   15.2852 C.ar    1  UNL1       -0.0042
@<TRIPOS>BOND
     1    19    18    1
     2    19    22    1
     3    22    23    1
     4    23    24   ar
     5    24    25   ar
     6    25    26   ar
     7    26    27   ar
     8    27    28   ar
     9    19     1    1
    10     1     2    2
    11     1     3   am
    12     3     4    1
    13     4     5    1
    14     5     6    1
    15     6     9    1
    16     9    10    2
    17    10    11    1
    18    11    12    2
    19    12    13    1
    20    13    14    2
    21    14    15    1
    22    15    16    2
    23    16    17    1
    24     6     7    1
    25     7     8    1
    26    28    23   ar
    27     8     3    1
    28    17     9    1
    29    16    12    1
    30    18    20    1
    31    18    21    1
@<TRIPOS>MOLECULE
*****
 28 31 0 0 0
SMALL
GASTEIGER

@<TRIPOS>ATOM
      1 C          61.1725   89.0517   10.2930 C.2     1  UNL1        0.2401
      2 O          60.8171   89.4063    8.8795 O.2     1  UNL1       -0.2734
      3 N          62.2472   89.8139   11.0098 N.am    1  UNL1       -0.2750
      4 C          62.9666   90.9307   10.3132 C.3     1  UNL1        0.1149
      5 C          64.0414   91.6929   11.0302 C.3     1  UNL1        0.1121
      6 N          64.3967   91.3383   12.4436 N.pl3   1  UNL1       -0.3071
      7 C          63.6774   90.2215   13.1402 C.3     1  UNL1        0.1121
      8 C          62.6026   89.4593   12.4234 C.3     1  UNL1        0.1149
      9 C          65.4715   92.1005   13.1606 C.2     1  UNL1        0.0295
     10 C          65.7581   93.5244   12.7864 C.2     1  UNL1        0.0120
     11 C          66.8329   94.2866   13.5033 C.2     1  UNL1        0.0216
     12 C          67.6211   93.6247   14.5945 C.2     1  UNL1        0.1008
     13 N          68.7325   94.1198   15.4717 N.2     1  UNL1       -0.1482
     14 N          69.1329   93.0018   16.3880 N.2     1  UNL1       -0.1467
     15 C          68.2688   91.8157   16.0772 C.2     1  UNL1        0.1198
     16 C          67.3344   92.2007   14.9687 C.2     1  UNL1        0.0238
     17 C          66.2597   91.4386   14.2517 C.3     1  UNL1        0.0705
     18 N          59.2435   88.2288   11.8265 N.3     1  UNL1       -0.3148
     19 C          60.4531   87.9349   10.9896 C.3     1  UNL1        0.1329
     20 H          58.8846   87.3599   12.2221 H       1  UNL1        0.1192
     21 H          58.5248   88.6603   11.2455 H       1  UNL1        0.1192
     22 C          60.9434   86.5242   10.8492 C.3     1  UNL1        0.0512
     23 C          61.3204   85.9922    9.4984 C.ar    1  UNL1       -0.0203
     24 C          62.6918   85.4291    9.2700 C.ar    1  UNL1       -0.0042
     25 C          63.0687   84.8971    7.9191 C.ar    1  UNL1       -0.0003
     26 C          62.0742   84.9282    6.7965 C.ar    1  UNL1       -0.0000
     27 C          60.7029   85.4914    7.0249 C.ar    1  UNL1       -0.0003
     28 C          60.3259   86.0234    8.3758 C.ar    1  UNL1       -0.0042
@<TRIPOS>BOND
     1    19    18    1
     2    19    22    1
     3    22    23    1
     4    23    24   ar
     5    24    25   ar
     6    25    26   ar
     7    26    27   ar
     8    27    28   ar
     9    19     1    1
    10     1     2    2
    11     1     3   am
    12     3     4    1
    13     4     5    1
    14     5     6    1
    15     6     9    1
    16     9    10    2
    17    10    11    1
    18    11    12    2
    19    12    13    1
    20    13    14    2
    21    14    15    1
    22    15    16    2
    23    16    17    1
    24     6     7    1
    25     7     8    1
    26    28    23   ar
    27     8     3    1
    28    17     9    1
    29    16    12    1
    30    18    20    1
    31    18    21    1
@<TRIPOS>MOLECULE
*****
 28 31 0 0 0
SMALL
GASTEIGER

@<TRIPOS>ATOM
      1 C          61.1877   88.9184    9.8892 C.2     1  UNL1        0.2401
      2 O          60.7180   89.4107    8.5524 O.2     1  UNL1       -0.2734
      3 N          62.2295   89.6863   10.6475 N.am    1  UNL1       -0.2750
      4 C          62.8015   90.9464   10.0690 C.3     1  UNL1        0.1149
      5 C          63.8434   91.7143   10.8274 C.3     1  UNL1        0.1121
      6 N          64.3131   91.2220   12.1641 N.pl3   1  UNL1       -0.3071
      7 C          63.7410   89.9618   12.7426 C.3     1  UNL1        0.1121
      8 C          62.6992   89.1939   11.9843 C.3     1  UNL1        0.1149
      9 C          65.3549   91.9899   12.9225 C.2     1  UNL1        0.0295
     10 C          65.6550   93.4123   12.5534 C.2     1  UNL1        0.0120
     11 C          66.6969   94.1802   13.3118 C.2     1  UNL1        0.0216
     12 C          67.4385   93.5254   14.4393 C.2     1  UNL1        0.1008
     13 N          68.5105   94.0271   15.3607 N.2     1  UNL1       -0.1482
     14 N          68.8729   92.9146   16.2993 N.2     1  UNL1       -0.1467
     15 C          68.0249   91.7253   15.9580 C.2     1  UNL1        0.1198
     16 C          67.1383   92.1029   14.8084 C.2     1  UNL1        0.0238
     17 C          66.0965   91.3351   14.0500 C.3     1  UNL1        0.0705
     18 N          59.7492   87.7201   11.6905 N.3     1  UNL1       -0.3148
     19 C          60.6157   87.6582   10.4677 C.3     1  UNL1        0.1329
     20 H          59.4500   86.7783   11.9432 H       1  UNL1        0.1192
     21 H          58.9302   88.2968   11.4980 H       1  UNL1        0.1192
     22 C          60.9102   86.3360    9.8233 C.3     1  UNL1        0.0512
     23 C          61.9727   85.4439   10.3936 C.ar    1  UNL1       -0.0203
     24 C          62.8741   84.6706    9.4774 C.ar    1  UNL1       -0.0042
     25 C          63.9366   83.7785   10.0477 C.ar    1  UNL1       -0.0003
     26 C          64.0977   83.6598   11.5343 C.ar    1  UNL1       -0.0000
     27 C          63.1964   84.4331   12.4505 C.ar    1  UNL1       -0.0003
     28 C          62.1338   85.3252   11.8802 C.ar    1  UNL1       -0.0042
@<TRIPOS>BOND
     1    19    18    1
     2    19    22    1
     3    22    23    1
     4    23    24   ar
     5    24    25   ar
     6    25    26   ar
     7    26    27   ar
     8    27    28   ar
     9    19     1    1
    10     1     2    2
    11     1     3   am
    12     3     4    1
    13     4     5    1
    14     5     6    1
    15     6     9    1
    16     9    10    2
    17    10    11    1
    18    11    12    2
    19    12    13    1
    20    13    14    2
    21    14    15    1
    22    15    16    2
    23    16    17    1
    24     6     7    1
    25     7     8    1
    26    28    23   ar
    27     8     3    1
    28    17     9    1
    29    16    12    1
    30    18    20    1
    31    18    21    1
@<TRIPOS>MOLECULE
*****
 28 31 0 0 0
SMALL
GASTEIGER

@<TRIPOS>ATOM
      1 C          61.1396   88.2738    9.5370 C.2     1  UNL1        0.2401
      2 O          60.4463   89.0816    8.4802 O.2     1  UNL1       -0.2734
      3 N          61.9711   88.9596   10.5802 N.am    1  UNL1       -0.2750
      4 C          62.1093   90.4531   10.5667 C.3     1  UNL1        0.1149
      5 C          62.9409   91.1389   11.6100 C.3     1  UNL1        0.1121
      6 N          63.6341   90.3311   12.6667 N.pl3   1  UNL1       -0.3071
      7 C          63.4959   88.8376   12.6803 C.3     1  UNL1        0.1121
      8 C          62.6644   88.1518   11.6371 C.3     1  UNL1        0.1149
      9 C          64.4657   91.0169   13.7100 C.2     1  UNL1        0.0295
     10 C          63.9583   91.1325   15.1167 C.2     1  UNL1        0.0120
     11 C          64.7899   91.8183   16.1600 C.2     1  UNL1        0.0216
     12 C          66.1288   92.3883   15.7964 C.2     1  UNL1        0.1008
     13 N          67.1638   93.1135   16.6043 N.2     1  UNL1       -0.1482
     14 N          68.3109   93.4461   15.6968 N.2     1  UNL1       -0.1467
     15 C          67.9848   92.9264   14.3280 C.2     1  UNL1        0.1198
     16 C          66.6362   92.2726   14.3896 C.2     1  UNL1        0.0238
     17 C          65.8046   91.5869   13.3464 C.3     1  UNL1        0.0705
     18 N          60.6548   86.0477    8.2885 N.3     1  UNL1       -0.3148
     19 C          61.0014   86.7803    9.5506 C.3     1  UNL1        0.1329
     20 H          60.6022   85.0471    8.4797 H       1  UNL1        0.1192
     21 H          61.3731   86.2223    7.5858 H       1  UNL1        0.1192
     22 C          61.2099   86.0194   10.8265 C.3     1  UNL1        0.0512
     23 C          62.2958   84.9885   10.9159 C.ar    1  UNL1       -0.0203
     24 C          62.6484   84.3836   12.2425 C.ar    1  UNL1       -0.0042
     25 C          63.7343   83.3527   12.3320 C.ar    1  UNL1       -0.0003
     26 C          64.4677   82.9266   11.0947 C.ar    1  UNL1       -0.0000
     27 C          64.1152   83.5315    9.7682 C.ar    1  UNL1       -0.0003
     28 C          63.0292   84.5624    9.6787 C.ar    1  UNL1       -0.0042
@<TRIPOS>BOND
     1    19    18    1
     2    19    22    1
     3    22    23    1
     4    23    24   ar
     5    24    25   ar
     6    25    26   ar
     7    26    27   ar
     8    27    28   ar
     9    19     1    1
    10     1     2    2
    11     1     3   am
    12     3     4    1
    13     4     5    1
    14     5     6    1
    15     6     9    1
    16     9    10    2
    17    10    11    1
    18    11    12    2
    19    12    13    1
    20    13    14    2
    21    14    15    1
    22    15    16    2
    23    16    17    1
    24     6     7    1
    25     7     8    1
    26    28    23   ar
    27     8     3    1
    28    17     9    1
    29    16    12    1
    30    18    20    1
    31    18    21    1
@<TRIPOS>MOLECULE
*****
 28 31 0 0 0
SMALL
GASTEIGER

@<TRIPOS>ATOM
      1 C          64.3036   90.2983   14.0876 C.2     1  UNL1        0.2401
      2 O          64.8318   90.8104   15.3948 O.2     1  UNL1       -0.2734
      3 N          64.0311   88.8339   13.9108 N.am    1  UNL1       -0.2750
      4 C          64.2869   87.8816   15.0411 C.3     1  UNL1        0.1149
      5 C          64.0144   86.4171   14.8642 C.3     1  UNL1        0.1121
      6 N          63.4862   85.9051   13.5570 N.pl3   1  UNL1       -0.3071
      7 C          63.2305   86.8574   12.4267 C.3     1  UNL1        0.1121
      8 C          63.5029   88.3218   12.6036 C.3     1  UNL1        0.1149
      9 C          63.2137   84.4406   13.3801 C.2     1  UNL1        0.0295
     10 C          62.7120   83.6262   14.5354 C.2     1  UNL1        0.0120
     11 C          62.4395   82.1617   14.3584 C.2     1  UNL1        0.0216
     12 C          62.6688   81.5119   13.0261 C.2     1  UNL1        0.1008
     13 N          62.4901   80.0993   12.5544 N.2     1  UNL1       -0.1482
     14 N          62.8813   80.0408   11.1075 N.2     1  UNL1       -0.1467
     15 C          63.3019   81.4172   10.6850 C.2     1  UNL1        0.1198
     16 C          63.1706   82.3264   11.8707 C.2     1  UNL1        0.0238
     17 C          63.4430   83.7908   12.0477 C.3     1  UNL1        0.0705
     18 N          62.6962   91.2993   12.3089 N.3     1  UNL1       -0.3148
     19 C          64.0478   91.2506   12.9573 C.3     1  UNL1        0.1329
     20 H          62.7008   91.9973   11.5652 H       1  UNL1        0.1192
     21 H          61.9939   91.5491   13.0052 H       1  UNL1        0.1192
     22 C          65.1439   92.1542   12.4754 C.3     1  UNL1        0.0512
     23 C          66.3576   92.3812   13.3271 C.ar    1  UNL1       -0.0203
     24 C          66.2809   93.2957   14.5137 C.ar    1  UNL1       -0.0042
     25 C          67.4946   93.5227   15.3654 C.ar    1  UNL1       -0.0003
     26 C          68.7850   92.8351   15.0306 C.ar    1  UNL1       -0.0000
     27 C          68.8618   91.9206   13.8441 C.ar    1  UNL1       -0.0003
     28 C          67.6480   91.6937   12.9924 C.ar    1  UNL1       -0.0042
@<TRIPOS>BOND
     1    19    18    1
     2    19    22    1
     3    22    23    1
     4    23    24   ar
     5    24    25   ar
     6    25    26   ar
     7    26    27   ar
     8    27    28   ar
     9    19     1    1
    10     1     2    2
    11     1     3   am
    12     3     4    1
    13     4     5    1
    14     5     6    1
    15     6     9    1
    16     9    10    2
    17    10    11    1
    18    11    12    2
    19    12    13    1
    20    13    14    2
    21    14    15    1
    22    15    16    2
    23    16    17    1
    24     6     7    1
    25     7     8    1
    26    28    23   ar
    27     8     3    1
    28    17     9    1
    29    16    12    1
    30    18    20    1
    31    18    21    1
@<TRIPOS>MOLECULE
*****
 28 31 0 0 0
SMALL
GASTEIGER

@<TRIPOS>ATOM
      1 C          64.1543   90.1514   13.8931 C.2     1  UNL1        0.2401
      2 O          64.7992   90.5704   15.1809 O.2     1  UNL1       -0.2734
      3 N          63.9491   88.6956   13.5959 N.am    1  UNL1       -0.2750
      4 C          64.3890   87.6587   14.5865 C.3     1  UNL1        0.1149
      5 C          64.1838   86.2027   14.2893 C.3     1  UNL1        0.1121
      6 N          63.5389   85.7838   13.0015 N.pl3   1  UNL1       -0.3071
      7 C          63.0990   86.8207   12.0109 C.3     1  UNL1        0.1121
      8 C          63.3042   88.2766   12.3081 C.3     1  UNL1        0.1149
      9 C          63.3337   84.3279   12.7042 C.2     1  UNL1        0.0295
     10 C          63.7372   83.7704   11.3715 C.2     1  UNL1        0.0120
     11 C          63.5320   82.3145   11.0742 C.2     1  UNL1        0.0216
     12 C          62.9233   81.4162   12.1098 C.2     1  UNL1        0.1008
     13 N          62.6011   79.9512   12.1034 N.2     1  UNL1       -0.1482
     14 N          61.9984   79.6033   13.4322 N.2     1  UNL1       -0.1467
     15 C          61.9482   80.8533   14.2599 C.2     1  UNL1        0.1198
     16 C          62.5198   81.9737   13.4426 C.2     1  UNL1        0.0238
     17 C          62.7250   83.4296   13.7398 C.3     1  UNL1        0.0705
     18 N          62.4217   91.0170   12.1615 N.3     1  UNL1       -0.3148
     19 C          63.7145   91.1883   12.9025 C.3     1  UNL1        0.1329
     20 H          62.2816   91.8092   11.5344 H       1  UNL1        0.1192
     21 H          61.6512   90.9707   12.8282 H       1  UNL1        0.1192
     22 C          64.5676   92.3967   12.6529 C.3     1  UNL1        0.0512
     23 C          65.9333   92.2394   12.0528 C.ar    1  UNL1       -0.0203
     24 C          67.0925   91.8448   12.9192 C.ar    1  UNL1       -0.0042
     25 C          68.4582   91.6876   12.3190 C.ar    1  UNL1       -0.0003
     26 C          68.6647   91.9250   10.8524 C.ar    1  UNL1       -0.0000
     27 C          67.5056   92.3196    9.9860 C.ar    1  UNL1       -0.0003
     28 C          66.1399   92.4768   10.5862 C.ar    1  UNL1       -0.0042
@<TRIPOS>BOND
     1    19    18    1
     2    19    22    1
     3    22    23    1
     4    23    24   ar
     5    24    25   ar
     6    25    26   ar
     7    26    27   ar
     8    27    28   ar
     9    19     1    1
    10     1     2    2
    11     1     3   am
    12     3     4    1
    13     4     5    1
    14     5     6    1
    15     6     9    1
    16     9    10    2
    17    10    11    1
    18    11    12    2
    19    12    13    1
    20    13    14    2
    21    14    15    1
    22    15    16    2
    23    16    17    1
    24     6     7    1
    25     7     8    1
    26    28    23   ar
    27     8     3    1
    28    17     9    1
    29    16    12    1
    30    18    20    1
    31    18    21    1
@<TRIPOS>MOLECULE
*****
 28 31 0 0 0
SMALL
GASTEIGER

@<TRIPOS>ATOM
      1 C          62.9400   90.3450   11.5058 C.2     1  UNL1        0.2401
      2 O          62.2103   90.7323   10.2537 O.2     1  UNL1       -0.2734
      3 N          63.0005   88.9057   11.9238 N.am    1  UNL1       -0.2750
      4 C          62.3313   87.8537   11.0899 C.3     1  UNL1        0.1149
      5 C          62.3919   86.4144   11.5080 C.3     1  UNL1        0.1121
      6 N          63.1216   86.0271   12.7600 N.pl3   1  UNL1       -0.3071
      7 C          63.7907   87.0791   13.5939 C.3     1  UNL1        0.1121
      8 C          63.7302   88.5184   13.1759 C.3     1  UNL1        0.1149
      9 C          63.1821   84.5878   13.1781 C.2     1  UNL1        0.0295
     10 C          63.6451   84.2266   14.5583 C.2     1  UNL1        0.0120
     11 C          63.7057   82.7873   14.9764 C.2     1  UNL1        0.0216
     12 C          63.3032   81.7093   14.0142 C.2     1  UNL1        0.1008
     13 N          63.2586   80.2154   14.1420 N.2     1  UNL1       -0.1482
     14 N          62.7680   79.6534   12.8407 N.2     1  UNL1       -0.1467
     15 C          62.5094   80.7999   11.9087 C.2     1  UNL1        0.1198
     16 C          62.8402   82.0705   12.6340 C.2     1  UNL1        0.0238
     17 C          62.7797   83.5098   12.2159 C.3     1  UNL1        0.0705
     18 N          63.3032   91.4998   13.8045 N.3     1  UNL1       -0.3148
     19 C          63.6091   91.3970   12.3397 C.3     1  UNL1        0.1329
     20 H          63.8425   92.2639   14.2117 H       1  UNL1        0.1192
     21 H          63.5515   90.6247   14.2660 H       1  UNL1        0.1192
     22 C          64.5844   92.3462   11.7087 C.3     1  UNL1        0.0512
     23 C          66.0562   92.1734   11.9409 C.ar    1  UNL1       -0.0203
     24 C          67.0077   92.2091   10.7818 C.ar    1  UNL1       -0.0042
     25 C          68.4795   92.0364   11.0140 C.ar    1  UNL1       -0.0003
     26 C          68.9999   91.8280   12.4053 C.ar    1  UNL1       -0.0000
     27 C          68.0485   91.7923   13.5644 C.ar    1  UNL1       -0.0003
     28 C          66.5766   91.9650   13.3322 C.ar    1  UNL1       -0.0042
@<TRIPOS>BOND
     1    19    18    1
     2    19    22    1
     3    22    23    1
     4    23    24   ar
     5    24    25   ar
     6    25    26   ar
     7    26    27   ar
     8    27    28   ar
     9    19     1    1
    10     1     2    2
    11     1     3   am
    12     3     4    1
    13     4     5    1
    14     5     6    1
    15     6     9    1
    16     9    10    2
    17    10    11    1
    18    11    12    2
    19    12    13    1
    20    13    14    2
    21    14    15    1
    22    15    16    2
    23    16    17    1
    24     6     7    1
    25     7     8    1
    26    28    23   ar
    27     8     3    1
    28    17     9    1
    29    16    12    1
    30    18    20    1
    31    18    21    1
@<TRIPOS>MOLECULE
*****
 28 31 0 0 0
SMALL
GASTEIGER

@<TRIPOS>ATOM
      1 C          63.3481   82.7312   13.8894 C.2     1  UNL1        0.2401
      2 O          62.8266   81.7459   14.8930 O.2     1  UNL1       -0.2734
      3 N          63.5134   84.1728   14.2696 N.am    1  UNL1       -0.2750
      4 C          63.1571   84.6290   15.6534 C.3     1  UNL1        0.1149
      5 C          63.3224   86.0707   16.0336 C.3     1  UNL1        0.1121
      6 N          63.8439   87.0559   15.0300 N.pl3   1  UNL1       -0.3071
      7 C          64.2002   86.5997   13.6463 C.3     1  UNL1        0.1121
      8 C          64.0349   85.1581   13.2660 C.3     1  UNL1        0.1149
      9 C          64.0092   88.4975   15.4102 C.2     1  UNL1        0.0295
     10 C          63.2384   89.0613   16.5668 C.2     1  UNL1        0.0120
     11 C          63.4037   90.5029   16.9470 C.2     1  UNL1        0.0216
     12 C          64.3399   91.3807   16.1705 C.2     1  UNL1        0.1008
     13 N          64.7065   92.8285   16.3102 N.2     1  UNL1       -0.1482
     14 N          65.7040   93.1594   15.2399 N.2     1  UNL1       -0.1467
     15 C          65.9538   91.9162   14.4387 C.2     1  UNL1        0.1198
     16 C          65.1108   90.8169   15.0138 C.2     1  UNL1        0.0238
     17 C          64.9454   89.3753   14.6337 C.3     1  UNL1        0.0705
     18 N          65.0510   81.6708   12.2385 N.3     1  UNL1       -0.3148
     19 C          63.7044   82.2750   12.5056 C.3     1  UNL1        0.1329
     20 H          65.1214   81.4198   11.2524 H       1  UNL1        0.1192
     21 H          65.1683   80.8350   12.8113 H       1  UNL1        0.1192
     22 C          62.7138   82.4230   11.3888 C.3     1  UNL1        0.0512
     23 C          62.6437   83.7053   10.6137 C.ar    1  UNL1       -0.0203
     24 C          61.8260   84.8512   11.1317 C.ar    1  UNL1       -0.0042
     25 C          61.7558   86.1334   10.3565 C.ar    1  UNL1       -0.0003
     26 C          62.5036   86.2698    9.0632 C.ar    1  UNL1       -0.0000
     27 C          63.3212   85.1240    8.5452 C.ar    1  UNL1       -0.0003
     28 C          63.3913   83.8417    9.3205 C.ar    1  UNL1       -0.0042
@<TRIPOS>BOND
     1    19    18    1
     2    19    22    1
     3    22    23    1
     4    23    24   ar
     5    24    25   ar
     6    25    26   ar
     7    26    27   ar
     8    27    28   ar
     9    19     1    1
    10     1     2    2
    11     1     3   am
    12     3     4    1
    13     4     5    1
    14     5     6    1
    15     6     9    1
    16     9    10    2
    17    10    11    1
    18    11    12    2
    19    12    13    1
    20    13    14    2
    21    14    15    1
    22    15    16    2
    23    16    17    1
    24     6     7    1
    25     7     8    1
    26    28    23   ar
    27     8     3    1
    28    17     9    1
    29    16    12    1
    30    18    20    1
    31    18    21    1
