@<TRIPOS>MOLECULE
*****
 34 37 0 0 0
SMALL
GASTEIGER

@<TRIPOS>ATOM
      1 C          63.4742   87.2093   16.2023 C.3     1  UNL1        0.1812
      2 O          63.8656   87.2553   14.7550 O.3     1  UNL1       -0.3784
      3 H          64.1634   86.3764   14.4725 H       1  UNL1        0.2106
      4 C          63.0827   87.1633   17.6495 C.3     1  UNL1        0.4197
      5 F          62.6912   87.1172   19.0968 F       1  UNL1       -0.1676
      6 F          63.1130   88.6620   17.7054 F       1  UNL1       -0.1676
      7 F          63.0523   85.6647   17.5937 F       1  UNL1       -0.1676
      8 C          63.8241   85.7514   16.2506 C.3     1  UNL1        0.0398
      9 C          62.2404   84.7203   15.2870 C.3     1  UNL1        0.0045
     10 C          63.7033   84.9097   15.0149 C.3     1  UNL1        0.0215
     11 C          65.1662   85.0991   14.7429 C.3     1  UNL1        0.0045
     12 C          63.5825   84.0680   13.7792 C.ar    1  UNL1       -0.0226
     13 C          63.7821   82.5835   13.8605 C.ar    1  UNL1       -0.0020
     14 C          63.6612   81.7418   12.6248 C.ar    1  UNL1        0.0293
     15 C          63.3409   82.3846   11.3079 C.ar    1  UNL1        0.1401
     16 F          63.2201   81.5429   10.0722 F       1  UNL1       -0.2042
     17 C          63.1413   83.8690   11.2267 C.ar    1  UNL1        0.0293
     18 C          63.2622   84.7107   12.4624 C.ar    1  UNL1       -0.0020
     19 C          63.1242   88.6670   16.1539 C.3     1  UNL1        0.0811
     20 C          63.4712   89.4819   14.9434 C.2     1  UNL1        0.0614
     21 C          64.6317   90.4241   14.8177 C.2     1  UNL1        0.0163
     22 C          64.5965   91.0222   13.4426 C.2     1  UNL1        0.0264
     23 C          65.4881   92.0142   12.7564 C.2     1  UNL1        0.0903
     24 C          65.1976   92.4336   11.3457 C.2     1  UNL1        0.3192
     25 N          64.0155   91.8610   10.6214 N.2     1  UNL1       -0.0585
     26 C          63.1238   90.8690   11.3077 C.3     1  UNL1        0.3085
     27 C          63.4143   90.4496   12.7182 C.2     1  UNL1        0.1121
     28 N          62.7189   89.4976   13.6458 N.2     1  UNL1       -0.2495
     29 N          66.0893   93.4256   10.6595 N.pl3   1  UNL1       -0.1860
     30 C          65.8218   94.8952   10.7970 C.3     1  UNL1        0.2346
     31 C          66.7135   95.8872   10.1108 C.3     1  UNL1        0.1929
     32 O          67.8726   95.4095    9.2870 O.3     1  UNL1       -0.3449
     33 C          68.1399   93.9400    9.1496 C.3     1  UNL1        0.1929
     34 C          67.2483   92.9480    9.8358 C.3     1  UNL1        0.2346
@<TRIPOS>BOND
     1     9    10    1
     2    10    11    1
     3    10     8    1
     4     8     1    1
     5     1     2    1
     6     1    19    1
     7    19    20    1
     8    20    21    2
     9    21    22    1
    10    22    23    2
    11    23    24    1
    12    24    29    1
    13    29    30    1
    14    30    31    1
    15    31    32    1
    16    32    33    1
    17    33    34    1
    18    24    25    2
    19    25    26    1
    20    26    27    1
    21    27    28    2
    22     1     4    1
    23     4     5    1
    24     4     6    1
    25     4     7    1
    26    10    12    1
    27    12    13   ar
    28    13    14   ar
    29    14    15   ar
    30    15    16    1
    31    15    17   ar
    32    17    18   ar
    33    28    20    1
    34    18    12   ar
    35    27    22    1
    36    34    29    1
    37     2     3    1
@<TRIPOS>MOLECULE
*****
 34 37 0 0 0
SMALL
GASTEIGER

@<TRIPOS>ATOM
      1 C          65.9628   91.7614   13.6870 C.3     1  UNL1        0.1812
      2 O          65.2963   91.6562   12.3473 O.3     1  UNL1       -0.3784
      3 H          65.8810   92.0227   11.6656 H       1  UNL1        0.2106
      4 C          66.6292   91.8665   15.0266 C.3     1  UNL1        0.4197
      5 F          67.2958   91.9717   16.3663 F       1  UNL1       -0.1676
      6 F          65.3460   92.3602   15.6264 F       1  UNL1       -0.1676
      7 F          67.9125   91.3729   14.4269 F       1  UNL1       -0.1676
      8 C          67.1576   92.3996   13.0425 C.3     1  UNL1        0.0398
      9 C          67.7024   92.2918   10.9952 C.3     1  UNL1        0.0045
     10 C          66.9795   93.2908   11.8492 C.3     1  UNL1        0.0215
     11 C          66.2566   94.2898   12.7033 C.3     1  UNL1        0.0045
     12 C          66.8014   94.1821   10.6559 C.ar    1  UNL1       -0.0226
     13 C          67.5244   93.8772    9.3775 C.ar    1  UNL1       -0.0020
     14 C          67.3463   94.7684    8.1842 C.ar    1  UNL1        0.0293
     15 C          66.4451   95.9646    8.2694 C.ar    1  UNL1        0.1401
     16 F          66.2670   96.8559    7.0761 F       1  UNL1       -0.2042
     17 C          65.7222   96.2695    9.5477 C.ar    1  UNL1        0.0293
     18 C          65.9003   95.3782   10.7410 C.ar    1  UNL1       -0.0020
     19 C          64.7681   91.1232   14.3314 C.3     1  UNL1        0.0811
     20 C          64.2506   89.8119   13.8191 C.2     1  UNL1        0.0614
     21 C          64.4912   88.4667   14.4379 C.2     1  UNL1        0.0163
     22 C          63.7910   87.4388   13.5993 C.2     1  UNL1        0.0264
     23 C          63.6796   85.9482   13.7242 C.2     1  UNL1        0.0903
     24 C          62.8948   85.1673   12.7120 C.2     1  UNL1        0.3192
     25 N          62.2214   85.8772   11.5750 N.2     1  UNL1       -0.0585
     26 C          62.3329   87.3678   11.4502 C.3     1  UNL1        0.3085
     27 C          63.1176   88.1486   12.4623 C.2     1  UNL1        0.1121
     28 N          63.4017   89.6153   12.5982 N.2     1  UNL1       -0.2495
     29 N          62.7833   83.6767   12.8368 N.pl3   1  UNL1       -0.1860
     30 C          62.3569   83.0628   14.1374 C.3     1  UNL1        0.2346
     31 C          62.2454   81.5722   14.2622 C.3     1  UNL1        0.1929
     32 O          62.5604   80.6954   13.0865 O.3     1  UNL1       -0.3449
     33 C          62.9868   81.3094   11.7861 C.3     1  UNL1        0.1929
     34 C          63.0983   82.8000   11.6612 C.3     1  UNL1        0.2346
@<TRIPOS>BOND
     1     9    10    1
     2    10    11    1
     3    10     8    1
     4     8     1    1
     5     1     2    1
     6     1    19    1
     7    19    20    1
     8    20    21    2
     9    21    22    1
    10    22    23    2
    11    23    24    1
    12    24    29    1
    13    29    30    1
    14    30    31    1
    15    31    32    1
    16    32    33    1
    17    33    34    1
    18    24    25    2
    19    25    26    1
    20    26    27    1
    21    27    28    2
    22     1     4    1
    23     4     5    1
    24     4     6    1
    25     4     7    1
    26    10    12    1
    27    12    13   ar
    28    13    14   ar
    29    14    15   ar
    30    15    16    1
    31    15    17   ar
    32    17    18   ar
    33    28    20    1
    34    18    12   ar
    35    27    22    1
    36    34    29    1
    37     2     3    1
@<TRIPOS>MOLECULE
*****
 34 37 0 0 0
SMALL
GASTEIGER

@<TRIPOS>ATOM
      1 C          61.3092   88.2707    9.3949 C.3     1  UNL1        0.1812
      2 O          62.5161   87.9586   10.2291 O.3     1  UNL1       -0.3784
      3 H          62.7555   87.0255   10.1151 H       1  UNL1        0.2106
      4 C          60.1023   88.5827    8.5607 C.3     1  UNL1        0.4197
      5 F          58.8953   88.8949    7.7265 F       1  UNL1       -0.1676
      6 F          60.4532   87.4581    7.6322 F       1  UNL1       -0.1676
      7 F          59.7514   89.7073    9.4892 F       1  UNL1       -0.1676
      8 C          61.2750   86.8505    8.9130 C.3     1  UNL1        0.0398
      9 C          62.8766   85.5303    8.4749 C.3     1  UNL1        0.0045
     10 C          62.0077   85.7835    9.6711 C.3     1  UNL1        0.0215
     11 C          61.1387   86.0367   10.8673 C.3     1  UNL1        0.0045
     12 C          62.7403   84.7165   10.4291 C.ar    1  UNL1       -0.0226
     13 C          63.6119   83.7400    9.6963 C.ar    1  UNL1       -0.0020
     14 C          64.3445   82.6729   10.4543 C.ar    1  UNL1        0.0293
     15 C          64.2057   82.5824   11.9452 C.ar    1  UNL1        0.1401
     16 F          64.9383   81.5153   12.7033 F       1  UNL1       -0.2042
     17 C          63.3341   83.5588   12.6779 C.ar    1  UNL1        0.0293
     18 C          62.6015   84.6259   11.9199 C.ar    1  UNL1       -0.0020
     19 C          61.3434   89.6907    9.8767 C.3     1  UNL1        0.0811
     20 C          62.2161   90.0683   11.0367 C.2     1  UNL1        0.0614
     21 C          63.4639   90.8981   10.9680 C.2     1  UNL1        0.0163
     22 C          64.0134   91.0250   12.3580 C.2     1  UNL1        0.0264
     23 C          65.2233   91.7277   12.8987 C.2     1  UNL1        0.0903
     24 C          65.5250   91.6790   14.3673 C.2     1  UNL1        0.3192
     25 N          64.6169   90.9277   15.2950 N.2     1  UNL1       -0.0585
     26 C          63.4069   90.2251   14.7543 C.3     1  UNL1        0.3085
     27 C          63.1052   90.2737   13.2858 C.2     1  UNL1        0.1121
     28 N          61.9944   89.6824   12.4692 N.2     1  UNL1       -0.2495
     29 N          66.7350   92.3816   14.9080 N.pl3   1  UNL1       -0.1860
     30 C          66.9051   93.8562   14.6917 C.3     1  UNL1        0.2346
     31 C          68.1150   94.5589   15.2324 C.3     1  UNL1        0.1929
     32 O          69.1548   93.7869   15.9895 O.3     1  UNL1       -0.3449
     33 C          68.9846   92.3124   16.2057 C.3     1  UNL1        0.1929
     34 C          67.7747   91.6098   15.6650 C.3     1  UNL1        0.2346
@<TRIPOS>BOND
     1     9    10    1
     2    10    11    1
     3    10     8    1
     4     8     1    1
     5     1     2    1
     6     1    19    1
     7    19    20    1
     8    20    21    2
     9    21    22    1
    10    22    23    2
    11    23    24    1
    12    24    29    1
    13    29    30    1
    14    30    31    1
    15    31    32    1
    16    32    33    1
    17    33    34    1
    18    24    25    2
    19    25    26    1
    20    26    27    1
    21    27    28    2
    22     1     4    1
    23     4     5    1
    24     4     6    1
    25     4     7    1
    26    10    12    1
    27    12    13   ar
    28    13    14   ar
    29    14    15   ar
    30    15    16    1
    31    15    17   ar
    32    17    18   ar
    33    28    20    1
    34    18    12   ar
    35    27    22    1
    36    34    29    1
    37     2     3    1
@<TRIPOS>MOLECULE
*****
 34 37 0 0 0
SMALL
GASTEIGER

@<TRIPOS>ATOM
      1 C          61.2055   88.0020    9.1498 C.3     1  UNL1        0.1812
      2 O          62.6080   88.0232    9.6814 O.3     1  UNL1       -0.3784
      3 H          63.0369   87.1732    9.4960 H       1  UNL1        0.2106
      4 C          59.8030   87.9808    8.6183 C.3     1  UNL1        0.4197
      5 F          58.4005   87.9596    8.0867 F       1  UNL1       -0.1676
      6 F          60.2685   87.2063    7.4209 F       1  UNL1       -0.1676
      7 F          59.3376   88.7552    9.8155 F       1  UNL1       -0.1676
      8 C          61.4132   86.6003    8.6578 C.3     1  UNL1        0.0398
      9 C          61.2021   85.9603   10.6692 C.3     1  UNL1        0.0045
     10 C          62.1054   85.5944    9.5290 C.3     1  UNL1        0.0215
     11 C          63.0088   85.2286    8.3888 C.3     1  UNL1        0.0045
     12 C          62.7977   84.5886   10.4003 C.ar    1  UNL1       -0.0226
     13 C          62.5438   84.5759   11.8786 C.ar    1  UNL1       -0.0020
     14 C          63.2361   83.5701   12.7499 C.ar    1  UNL1        0.0293
     15 C          64.1822   82.5769   12.1428 C.ar    1  UNL1        0.1401
     16 F          64.8745   81.5711   13.0140 F       1  UNL1       -0.2042
     17 C          64.4361   82.5897   10.6645 C.ar    1  UNL1        0.0293
     18 C          63.7438   83.5955    9.7932 C.ar    1  UNL1       -0.0020
     19 C          60.9978   89.4037    9.6418 C.3     1  UNL1        0.0811
     20 C          62.1311   90.1496   10.2816 C.2     1  UNL1        0.0614
     21 C          62.6895   89.8994   11.6512 C.2     1  UNL1        0.0163
     22 C          63.8085   90.8718   11.8803 C.2     1  UNL1        0.0264
     23 C          64.7233   91.0922   13.0483 C.2     1  UNL1        0.0903
     24 C          65.7713   92.1638   12.9885 C.2     1  UNL1        0.3192
     25 N          65.9044   93.0149   11.7605 N.2     1  UNL1       -0.0585
     26 C          64.9896   92.7945   10.5924 C.3     1  UNL1        0.3085
     27 C          63.9416   91.7230   10.6523 C.2     1  UNL1        0.1121
     28 N          62.9049   91.2766    9.6643 N.2     1  UNL1       -0.2495
     29 N          66.6862   92.3841   14.1565 N.pl3   1  UNL1       -0.1860
     30 C          66.1170   92.5457   15.5350 C.3     1  UNL1        0.2346
     31 C          67.0319   92.7661   16.7031 C.3     1  UNL1        0.1929
     32 O          68.5160   92.8249   16.4927 O.3     1  UNL1       -0.3449
     33 C          69.0851   92.6634   15.1143 C.3     1  UNL1        0.1929
     34 C          68.1702   92.4430   13.9463 C.3     1  UNL1        0.2346
@<TRIPOS>BOND
     1     9    10    1
     2    10    11    1
     3    10     8    1
     4     8     1    1
     5     1     2    1
     6     1    19    1
     7    19    20    1
     8    20    21    2
     9    21    22    1
    10    22    23    2
    11    23    24    1
    12    24    29    1
    13    29    30    1
    14    30    31    1
    15    31    32    1
    16    32    33    1
    17    33    34    1
    18    24    25    2
    19    25    26    1
    20    26    27    1
    21    27    28    2
    22     1     4    1
    23     4     5    1
    24     4     6    1
    25     4     7    1
    26    10    12    1
    27    12    13   ar
    28    13    14   ar
    29    14    15   ar
    30    15    16    1
    31    15    17   ar
    32    17    18   ar
    33    28    20    1
    34    18    12   ar
    35    27    22    1
    36    34    29    1
    37     2     3    1
@<TRIPOS>MOLECULE
*****
 34 37 0 0 0
SMALL
GASTEIGER

@<TRIPOS>ATOM
      1 C          65.4020   91.2857   14.9585 C.3     1  UNL1        0.1812
      2 O          65.6985   90.5048   13.7127 O.3     1  UNL1       -0.3784
      3 H          66.4520   90.9055   13.2516 H       1  UNL1        0.2106
      4 C          65.1055   92.0666   16.2044 C.3     1  UNL1        0.4197
      5 F          64.8089   92.8475   17.4503 F       1  UNL1       -0.1676
      6 F          66.5402   92.4987   16.2751 F       1  UNL1       -0.1676
      7 F          63.6708   91.6345   16.1338 F       1  UNL1       -0.1676
      8 C          66.5330   92.2191   14.6427 C.3     1  UNL1        0.0398
      9 C          68.2557   92.0037   13.4237 C.3     1  UNL1        0.0045
     10 C          66.8684   92.5349   13.2152 C.3     1  UNL1        0.0215
     11 C          65.4812   93.0661   13.0067 C.3     1  UNL1        0.0045
     12 C          67.2039   92.8507   11.7877 C.ar    1  UNL1       -0.0226
     13 C          66.6546   94.0896   11.1446 C.ar    1  UNL1       -0.0020
     14 C          66.9900   94.4054    9.7171 C.ar    1  UNL1        0.0293
     15 C          67.8748   93.4823    8.9327 C.ar    1  UNL1        0.1401
     16 F          68.2102   93.7981    7.5052 F       1  UNL1       -0.2042
     17 C          68.4240   92.2435    9.5758 C.ar    1  UNL1        0.0293
     18 C          68.0886   91.9277   11.0033 C.ar    1  UNL1       -0.0020
     19 C          64.2711   90.3523   15.2744 C.3     1  UNL1        0.0811
     20 C          63.8689   89.2995   14.2846 C.2     1  UNL1        0.0614
     21 C          63.2603   89.5441   12.9355 C.2     1  UNL1        0.0163
     22 C          63.0199   88.2130   12.2872 C.2     1  UNL1        0.0264
     23 C          62.4416   87.8348   10.9558 C.2     1  UNL1        0.0903
     24 C          62.3233   86.3893   10.5728 C.2     1  UNL1        0.3192
     25 N          62.7832   85.3221   11.5211 N.2     1  UNL1       -0.0585
     26 C          63.3615   85.7002   12.8525 C.3     1  UNL1        0.3085
     27 C          63.4799   87.1456   13.2355 C.2     1  UNL1        0.1121
     28 N          64.0046   87.8172   14.4700 N.2     1  UNL1       -0.2495
     29 N          61.7449   86.0112    9.2414 N.pl3   1  UNL1       -0.1860
     30 C          60.3311   86.3828    8.9050 C.3     1  UNL1        0.2346
     31 C          59.7528   86.0046    7.5736 C.3     1  UNL1        0.1929
     32 O          60.5883   85.2549    6.5786 O.3     1  UNL1       -0.3449
     33 C          62.0021   84.8834    6.9150 C.3     1  UNL1        0.1929
     34 C          62.5804   85.2616    8.2464 C.3     1  UNL1        0.2346
@<TRIPOS>BOND
     1     9    10    1
     2    10    11    1
     3    10     8    1
     4     8     1    1
     5     1     2    1
     6     1    19    1
     7    19    20    1
     8    20    21    2
     9    21    22    1
    10    22    23    2
    11    23    24    1
    12    24    29    1
    13    29    30    1
    14    30    31    1
    15    31    32    1
    16    32    33    1
    17    33    34    1
    18    24    25    2
    19    25    26    1
    20    26    27    1
    21    27    28    2
    22     1     4    1
    23     4     5    1
    24     4     6    1
    25     4     7    1
    26    10    12    1
    27    12    13   ar
    28    13    14   ar
    29    14    15   ar
    30    15    16    1
    31    15    17   ar
    32    17    18   ar
    33    28    20    1
    34    18    12   ar
    35    27    22    1
    36    34    29    1
    37     2     3    1
@<TRIPOS>MOLECULE
*****
 34 37 0 0 0
SMALL
GASTEIGER

@<TRIPOS>ATOM
      1 C          64.8313   91.3945   14.6444 C.3     1  UNL1        0.1812
      2 O          63.4281   91.2679   14.1297 O.3     1  UNL1       -0.3784
      3 H          63.1963   92.0625   13.6239 H       1  UNL1        0.2106
      4 C          66.2345   91.5211   15.1592 C.3     1  UNL1        0.4197
      5 F          67.6377   91.6478   15.6740 F       1  UNL1       -0.1676
      6 F          66.6937   90.5030   14.1579 F       1  UNL1       -0.1676
      7 F          65.7753   92.5392   16.1605 F       1  UNL1       -0.1676
      8 C          64.9473   92.7426   13.9968 C.3     1  UNL1        0.0398
      9 C          66.6148   93.8828   13.3491 C.3     1  UNL1        0.0045
     10 C          65.6924   92.8916   12.7035 C.3     1  UNL1        0.0215
     11 C          64.7700   91.9005   12.0578 C.3     1  UNL1        0.0045
     12 C          66.4375   93.0407   11.4102 C.ar    1  UNL1       -0.0226
     13 C          66.1388   94.1960   10.5013 C.ar    1  UNL1       -0.0020
     14 C          66.8839   94.3450    9.2080 C.ar    1  UNL1        0.0293
     15 C          67.9278   93.3387    8.8236 C.ar    1  UNL1        0.1401
     16 F          68.6729   93.4878    7.5304 F       1  UNL1       -0.2042
     17 C          68.2265   92.1835    9.7325 C.ar    1  UNL1        0.0293
     18 C          67.4814   92.0344   11.0258 C.ar    1  UNL1       -0.0020
     19 C          64.7153   90.0466   15.2921 C.3     1  UNL1        0.0811
     20 C          64.2621   88.8645   14.4876 C.2     1  UNL1        0.0614
     21 C          64.4610   87.4226   14.8503 C.2     1  UNL1        0.0163
     22 C          63.8523   86.5836   13.7660 C.2     1  UNL1        0.0264
     23 C          63.7474   85.0982   13.5857 C.2     1  UNL1        0.0903
     24 C          63.0674   84.5362   12.3725 C.2     1  UNL1        0.3192
     25 N          62.4924   85.4595   11.3397 N.2     1  UNL1       -0.0585
     26 C          62.5974   86.9449   11.5200 C.3     1  UNL1        0.3085
     27 C          63.2773   87.5070   12.7331 C.2     1  UNL1        0.1121
     28 N          63.5306   88.9167   13.1791 N.2     1  UNL1       -0.2495
     29 N          62.9625   83.0507   12.1922 N.pl3   1  UNL1       -0.1860
     30 C          63.3194   82.4280   10.8750 C.3     1  UNL1        0.2346
     31 C          63.2144   80.9426   10.6947 C.3     1  UNL1        0.1929
     32 O          62.7526   80.0799   11.8316 O.3     1  UNL1       -0.3449
     33 C          62.3957   80.7026   13.1487 C.3     1  UNL1        0.1929
     34 C          62.5007   82.1880   13.3290 C.3     1  UNL1        0.2346
@<TRIPOS>BOND
     1     9    10    1
     2    10    11    1
     3    10     8    1
     4     8     1    1
     5     1     2    1
     6     1    19    1
     7    19    20    1
     8    20    21    2
     9    21    22    1
    10    22    23    2
    11    23    24    1
    12    24    29    1
    13    29    30    1
    14    30    31    1
    15    31    32    1
    16    32    33    1
    17    33    34    1
    18    24    25    2
    19    25    26    1
    20    26    27    1
    21    27    28    2
    22     1     4    1
    23     4     5    1
    24     4     6    1
    25     4     7    1
    26    10    12    1
    27    12    13   ar
    28    13    14   ar
    29    14    15   ar
    30    15    16    1
    31    15    17   ar
    32    17    18   ar
    33    28    20    1
    34    18    12   ar
    35    27    22    1
    36    34    29    1
    37     2     3    1
