@<TRIPOS>MOLECULE
*****
 32 38 0 0 0
SMALL
GASTEIGER

@<TRIPOS>ATOM
      1 C          63.2250   86.9966   13.1112 C.ar    1  UNL1        0.2409
      2 N          62.3572   86.8043   11.9030 N.ar    1  UNL1       -0.1111
      3 N          62.3009   88.1066   11.1609 N.ar    1  UNL1       -0.1270
      4 C          63.1339   89.1038   11.9104 C.ar    1  UNL1        0.1744
      5 C          63.4461   90.5478   11.6511 C.ar    1  UNL1        0.0758
      6 C          64.3295   91.3057   12.5972 C.ar    1  UNL1        0.1390
      7 C          64.9007   90.6196   13.8026 C.ar    1  UNL1        0.0292
      8 C          64.5884   89.1756   14.0619 C.ar    1  UNL1        0.0828
      9 N          63.7051   88.4177   13.1159 N.ar    1  UNL1       -0.2599
     10 C          65.7841   91.3776   14.7487 C.3     1  UNL1        0.0268
     11 C          67.1484   91.6731   15.2977 C.3     1  UNL1        0.0048
     12 C          65.9499   92.3951   15.8383 C.3     1  UNL1        0.0048
     13 N          63.5549   85.9512   14.1352 N.pl3   1  UNL1       -0.1873
     14 H          64.0567   86.1972   14.9457 H       1  UNL1        0.1764
     15 O          61.9157   84.7719   14.7847 O.2     1  UNL1       -0.1545
     16 S          63.1204   84.5311   13.9241 S.O2    1  UNL1        0.0544
     17 O          64.3251   84.2903   13.0635 O.2     1  UNL1       -0.1545
     18 C          62.6858   83.1110   13.7131 C.3     1  UNL1        0.1490
     19 C          62.3124   81.7701   14.2721 C.3     1  UNL1        0.0273
     20 C          62.3064   81.9923   12.7887 C.3     1  UNL1        0.0273
     21 O          64.6417   92.7498   12.3378 O.3     1  UNL1       -0.4756
     22 C          66.0616   93.1834   12.1239 C.3     1  UNL1        0.2051
     23 C          66.4361   93.9398   10.8838 C.3     1  UNL1        0.0404
     24 C          67.3922   93.3371    9.8976 C.3     1  UNL1        0.0036
     25 C          67.7666   94.0936    8.6577 C.3     1  UNL1        0.0001
     26 C          67.1850   95.4527    8.4039 C.3     1  UNL1        0.0000
     27 C          66.2289   96.0554    9.3901 C.3     1  UNL1        0.0001
     28 C          67.0860   93.1106   10.5743 C.3     1  UNL1        0.0000
     29 C          67.9738   91.9780   10.1514 C.3     1  UNL1        0.0001
     30 C          68.3482   92.7344    8.9114 C.3     1  UNL1        0.0000
     31 C          67.0178   92.5807   11.1376 C.3     1  UNL1        0.0036
     32 C          65.8545   95.2990   10.6301 C.3     1  UNL1        0.0036
@<TRIPOS>BOND
     1    15    16    2
     2    16    17    2
     3    16    13    1
     4    13     1    1
     5     1     2   ar
     6     2     3   ar
     7     3     4   ar
     8     4     5   ar
     9     5     6   ar
    10     6    21    1
    11    21    22    1
    12    22    23    1
    13    23    24    1
    14    24    25    1
    15    25    26    1
    16    26    27    1
    17    27    28    1
    18    28    29    1
    19    29    30    1
    20    29    31    1
    21    27    32    1
    22     6     7   ar
    23     7    10    1
    24    10    11    1
    25    11    12    1
    26     7     8   ar
    27     8     9   ar
    28    16    18    1
    29    18    19    1
    30    19    20    1
    31     9     1   ar
    32    20    18    1
    33     9     4   ar
    34    31    23    1
    35    12    10    1
    36    32    23    1
    37    30    25    1
    38    13    14    1
@<TRIPOS>MOLECULE
*****
 32 38 0 0 0
SMALL
GASTEIGER

@<TRIPOS>ATOM
      1 C          61.4774   87.5108   10.8184 C.ar    1  UNL1        0.2409
      2 N          60.8983   87.8144    9.4684 N.ar    1  UNL1       -0.1111
      3 N          61.3262   89.1990    9.0813 N.ar    1  UNL1       -0.1270
      4 C          62.1697   89.7510   10.1921 C.ar    1  UNL1        0.1744
      5 C          62.8648   91.0690   10.3646 C.ar    1  UNL1        0.0758
      6 C          63.6534   91.3435   11.6107 C.ar    1  UNL1        0.1390
      7 C          63.7468   90.3001   12.6843 C.ar    1  UNL1        0.0292
      8 C          63.0517   88.9822   12.5117 C.ar    1  UNL1        0.0828
      9 N          62.2632   88.7076   11.2656 N.ar    1  UNL1       -0.2599
     10 C          64.5354   90.5747   13.9304 C.3     1  UNL1        0.0268
     11 C          64.5867   90.7933   15.4135 C.3     1  UNL1        0.0048
     12 C          65.8499   90.8317   14.6056 C.3     1  UNL1        0.0048
     13 N          61.3015   86.2343   11.5863 N.pl3   1  UNL1       -0.1873
     14 H          60.5115   86.1101   12.1605 H       1  UNL1        0.1764
     15 O          62.3107   84.9827   12.9702 O.2     1  UNL1       -0.1545
     16 S          62.3294   85.1470   11.4794 S.O2    1  UNL1        0.0544
     17 O          62.3481   85.3113    9.9885 O.2     1  UNL1       -0.1545
     18 C          63.3572   84.0598   11.3725 C.3     1  UNL1        0.1490
     19 C          64.5028   83.2925   11.9633 C.3     1  UNL1        0.0273
     20 C          63.9920   82.9438   10.5968 C.3     1  UNL1        0.0273
     21 O          64.3485   92.6615   11.7833 O.3     1  UNL1       -0.4756
     22 C          65.8310   92.7602   11.5771 C.3     1  UNL1        0.2051
     23 C          66.3844   93.7058   10.5525 C.3     1  UNL1        0.0404
     24 C          67.4995   93.2660    9.6509 C.3     1  UNL1        0.0036
     25 C          68.0529   94.2116    8.6264 C.3     1  UNL1        0.0001
     26 C          67.4911   95.5970    8.5036 C.3     1  UNL1        0.0000
     27 C          66.3760   96.0368    9.4052 C.3     1  UNL1        0.0001
     28 C          67.0931   92.9343   10.2234 C.3     1  UNL1        0.0000
     29 C          68.0612   91.8806    9.7737 C.3     1  UNL1        0.0001
     30 C          68.6146   92.8262    8.7492 C.3     1  UNL1        0.0000
     31 C          66.9461   92.3204   10.6753 C.3     1  UNL1        0.0036
     32 C          65.8227   95.0912   10.4297 C.3     1  UNL1        0.0036
@<TRIPOS>BOND
     1    15    16    2
     2    16    17    2
     3    16    13    1
     4    13     1    1
     5     1     2   ar
     6     2     3   ar
     7     3     4   ar
     8     4     5   ar
     9     5     6   ar
    10     6    21    1
    11    21    22    1
    12    22    23    1
    13    23    24    1
    14    24    25    1
    15    25    26    1
    16    26    27    1
    17    27    28    1
    18    28    29    1
    19    29    30    1
    20    29    31    1
    21    27    32    1
    22     6     7   ar
    23     7    10    1
    24    10    11    1
    25    11    12    1
    26     7     8   ar
    27     8     9   ar
    28    16    18    1
    29    18    19    1
    30    19    20    1
    31     9     1   ar
    32    20    18    1
    33     9     4   ar
    34    31    23    1
    35    12    10    1
    36    32    23    1
    37    30    25    1
    38    13    14    1
@<TRIPOS>MOLECULE
*****
 32 38 0 0 0
SMALL
GASTEIGER

@<TRIPOS>ATOM
      1 C          64.7374   91.7342   13.0527 C.ar    1  UNL1        0.2409
      2 N          65.4491   91.9676   14.3523 N.ar    1  UNL1       -0.1111
      3 N          65.3946   90.6956   15.1455 N.ar    1  UNL1       -0.1270
      4 C          64.6492   89.6762   14.3361 C.ar    1  UNL1        0.1744
      5 C          64.2878   88.2463   14.6098 C.ar    1  UNL1        0.0758
      6 C          63.5203   87.4584   13.5900 C.ar    1  UNL1        0.1390
      7 C          63.1141   88.1003   12.2966 C.ar    1  UNL1        0.0292
      8 C          63.4755   89.5301   12.0229 C.ar    1  UNL1        0.0828
      9 N          64.2430   90.3181   13.0427 N.ar    1  UNL1       -0.2599
     10 C          62.3466   87.3123   11.2767 C.3     1  UNL1        0.0268
     11 C          61.2659   86.3281   10.9398 C.3     1  UNL1        0.0048
     12 C          62.0978   86.9317    9.8474 C.3     1  UNL1        0.0048
     13 N          64.5525   92.7404   11.9557 N.pl3   1  UNL1       -0.1873
     14 H          63.6870   93.1969   11.8472 H       1  UNL1        0.1764
     15 O          66.1597   94.1249   11.9582 O.2     1  UNL1       -0.1545
     16 S          65.6864   93.0511   11.0240 S.O2    1  UNL1        0.0544
     17 O          65.2129   91.9772   10.0898 O.2     1  UNL1       -0.1545
     18 C          66.8202   93.3618   10.0924 C.3     1  UNL1        0.1490
     19 C          68.0855   92.9463    9.4023 C.3     1  UNL1        0.0273
     20 C          67.5187   94.3153    9.1689 C.3     1  UNL1        0.0273
     21 O          63.1589   86.0285   13.8636 O.3     1  UNL1       -0.4756
     22 C          63.9074   84.9220   13.1815 C.3     1  UNL1        0.2051
     23 C          63.3300   83.5380   13.1436 C.3     1  UNL1        0.0404
     24 C          63.4730   82.6993   11.9083 C.3     1  UNL1        0.0036
     25 C          62.8956   81.3154   11.8704 C.3     1  UNL1        0.0001
     26 C          62.1753   80.7703   13.0679 C.3     1  UNL1        0.0000
     27 C          62.0324   81.6090   14.3033 C.3     1  UNL1        0.0001
     28 C          63.6949   83.4140   12.1153 C.3     1  UNL1        0.0000
     29 C          64.1933   83.2445   10.7108 C.3     1  UNL1        0.0001
     30 C          63.6159   81.8606   10.6730 C.3     1  UNL1        0.0000
     31 C          64.0503   84.0832   11.9461 C.3     1  UNL1        0.0036
     32 C          62.6097   82.9929   14.3411 C.3     1  UNL1        0.0036
@<TRIPOS>BOND
     1    15    16    2
     2    16    17    2
     3    16    13    1
     4    13     1    1
     5     1     2   ar
     6     2     3   ar
     7     3     4   ar
     8     4     5   ar
     9     5     6   ar
    10     6    21    1
    11    21    22    1
    12    22    23    1
    13    23    24    1
    14    24    25    1
    15    25    26    1
    16    26    27    1
    17    27    28    1
    18    28    29    1
    19    29    30    1
    20    29    31    1
    21    27    32    1
    22     6     7   ar
    23     7    10    1
    24    10    11    1
    25    11    12    1
    26     7     8   ar
    27     8     9   ar
    28    16    18    1
    29    18    19    1
    30    19    20    1
    31     9     1   ar
    32    20    18    1
    33     9     4   ar
    34    31    23    1
    35    12    10    1
    36    32    23    1
    37    30    25    1
    38    13    14    1
@<TRIPOS>MOLECULE
*****
 32 38 0 0 0
SMALL
GASTEIGER

@<TRIPOS>ATOM
      1 C          65.7131   92.9176   11.4694 C.ar    1  UNL1        0.2409
      2 N          65.1766   93.4577   10.1769 N.ar    1  UNL1       -0.1111
      3 N          64.0097   92.6084    9.7685 N.ar    1  UNL1       -0.1270
      4 C          63.8250   91.5433   10.8085 C.ar    1  UNL1        0.1744
      5 C          62.8342   90.4242   10.9341 C.ar    1  UNL1        0.0758
      6 C          62.8962   89.4962   12.1109 C.ar    1  UNL1        0.1390
      7 C          63.9490   89.6873   13.1621 C.ar    1  UNL1        0.0292
      8 C          64.9398   90.8064   13.0365 C.ar    1  UNL1        0.0828
      9 N          64.8778   91.7344   11.8597 N.ar    1  UNL1       -0.2599
     10 C          64.0109   88.7592   14.3390 C.3     1  UNL1        0.0268
     11 C          63.7286   88.4732   15.7841 C.3     1  UNL1        0.0048
     12 C          64.4006   87.4378   14.9321 C.3     1  UNL1        0.0048
     13 N          66.8801   93.4645   12.2368 N.pl3   1  UNL1       -0.1873
     14 H          67.5255   94.0607   11.7926 H       1  UNL1        0.1764
     15 O          66.0925   94.1767   14.0732 O.2     1  UNL1       -0.1545
     16 S          67.0638   93.1031   13.6811 S.O2    1  UNL1        0.0544
     17 O          68.0352   92.0295   13.2889 O.2     1  UNL1       -0.1545
     18 C          67.2475   92.7418   15.1252 C.3     1  UNL1        0.1490
     19 C          68.1496   92.4082   16.2762 C.3     1  UNL1        0.0273
     20 C          66.6635   92.4496   16.4757 C.3     1  UNL1        0.0273
     21 O          61.9053   88.3770   12.2365 O.3     1  UNL1       -0.4756
     22 C          61.6476   87.4690   11.0707 C.3     1  UNL1        0.2051
     23 C          62.3321   86.1366   10.9921 C.3     1  UNL1        0.0404
     24 C          62.6380   85.5282    9.6556 C.3     1  UNL1        0.0036
     25 C          63.3225   84.1958    9.5771 C.3     1  UNL1        0.0001
     26 C          63.7010   83.4718   10.8351 C.3     1  UNL1        0.0000
     27 C          63.3951   84.0802   12.1716 C.3     1  UNL1        0.0001
     28 C          62.3014   86.1855    9.8956 C.3     1  UNL1        0.0000
     29 C          62.2595   86.2522    8.3977 C.3     1  UNL1        0.0001
     30 C          62.9439   84.9198    8.3192 C.3     1  UNL1        0.0000
     31 C          61.9536   86.8606    9.7342 C.3     1  UNL1        0.0036
     32 C          62.7107   85.4126   12.2501 C.3     1  UNL1        0.0036
@<TRIPOS>BOND
     1    15    16    2
     2    16    17    2
     3    16    13    1
     4    13     1    1
     5     1     2   ar
     6     2     3   ar
     7     3     4   ar
     8     4     5   ar
     9     5     6   ar
    10     6    21    1
    11    21    22    1
    12    22    23    1
    13    23    24    1
    14    24    25    1
    15    25    26    1
    16    26    27    1
    17    27    28    1
    18    28    29    1
    19    29    30    1
    20    29    31    1
    21    27    32    1
    22     6     7   ar
    23     7    10    1
    24    10    11    1
    25    11    12    1
    26     7     8   ar
    27     8     9   ar
    28    16    18    1
    29    18    19    1
    30    19    20    1
    31     9     1   ar
    32    20    18    1
    33     9     4   ar
    34    31    23    1
    35    12    10    1
    36    32    23    1
    37    30    25    1
    38    13    14    1
@<TRIPOS>MOLECULE
*****
 32 38 0 0 0
SMALL
GASTEIGER

@<TRIPOS>ATOM
      1 C          65.7249   92.9799   11.4793 C.ar    1  UNL1        0.2409
      2 N          65.2102   93.5316   10.1829 N.ar    1  UNL1       -0.1111
      3 N          64.0680   92.6695    9.7332 N.ar    1  UNL1       -0.1270
      4 C          63.8768   91.5850   10.7518 C.ar    1  UNL1        0.1744
      5 C          62.9025   90.4476   10.8360 C.ar    1  UNL1        0.0758
      6 C          62.9524   89.5021   11.9994 C.ar    1  UNL1        0.1390
      7 C          63.9764   89.6940   13.0785 C.ar    1  UNL1        0.0292
      8 C          64.9506   90.8314   12.9943 C.ar    1  UNL1        0.0828
      9 N          64.9008   91.7769   11.8309 N.ar    1  UNL1       -0.2599
     10 C          64.0262   88.7484   14.2419 C.3     1  UNL1        0.0268
     11 C          63.7312   88.4418   15.6803 C.3     1  UNL1        0.0048
     12 C          64.4074   87.4171   14.8185 C.3     1  UNL1        0.0048
     13 N          66.8637   93.5340   12.2830 N.pl3   1  UNL1       -0.1873
     14 H          67.5083   94.1492   11.8643 H       1  UNL1        0.1764
     15 O          67.9992   92.0832   13.3347 O.2     1  UNL1       -0.1545
     16 S          67.0205   93.1508   13.7248 S.O2    1  UNL1        0.0544
     17 O          66.0418   94.2185   14.1150 O.2     1  UNL1       -0.1545
     18 C          67.1773   92.7677   15.1665 C.3     1  UNL1        0.1490
     19 C          68.0586   92.4323   16.3331 C.3     1  UNL1        0.0273
     20 C          66.5676   92.4392   16.4971 C.3     1  UNL1        0.0273
     21 O          61.9781   88.3646   12.0836 O.3     1  UNL1       -0.4756
     22 C          62.1408   87.1701   11.1912 C.3     1  UNL1        0.2051
     23 C          61.2612   87.0081    9.9869 C.3     1  UNL1        0.0404
     24 C          61.6801   86.1002    8.8689 C.3     1  UNL1        0.0036
     25 C          60.8005   85.9383    7.6647 C.3     1  UNL1        0.0001
     26 C          59.5021   86.6843    7.5786 C.3     1  UNL1        0.0000
     27 C          59.0832   87.5923    8.6967 C.3     1  UNL1        0.0001
     28 C          61.9871   86.3090    9.5508 C.3     1  UNL1        0.0000
     29 C          62.9786   85.3541    8.9550 C.3     1  UNL1        0.0001
     30 C          62.0990   85.1922    7.7508 C.3     1  UNL1        0.0000
     31 C          62.5597   86.2621   10.0731 C.3     1  UNL1        0.0036
     32 C          59.9628   87.7542    9.9008 C.3     1  UNL1        0.0036
@<TRIPOS>BOND
     1    15    16    2
     2    16    17    2
     3    16    13    1
     4    13     1    1
     5     1     2   ar
     6     2     3   ar
     7     3     4   ar
     8     4     5   ar
     9     5     6   ar
    10     6    21    1
    11    21    22    1
    12    22    23    1
    13    23    24    1
    14    24    25    1
    15    25    26    1
    16    26    27    1
    17    27    28    1
    18    28    29    1
    19    29    30    1
    20    29    31    1
    21    27    32    1
    22     6     7   ar
    23     7    10    1
    24    10    11    1
    25    11    12    1
    26     7     8   ar
    27     8     9   ar
    28    16    18    1
    29    18    19    1
    30    19    20    1
    31     9     1   ar
    32    20    18    1
    33     9     4   ar
    34    31    23    1
    35    12    10    1
    36    32    23    1
    37    30    25    1
    38    13    14    1
@<TRIPOS>MOLECULE
*****
 32 38 0 0 0
SMALL
GASTEIGER

@<TRIPOS>ATOM
      1 C          64.7216   91.2477   14.3083 C.ar    1  UNL1        0.2409
      2 N          64.3174   92.1902   13.2137 N.ar    1  UNL1       -0.1111
      3 N          63.6455   91.3899   12.1376 N.ar    1  UNL1       -0.1270
      4 C          63.6345   89.9528   12.5671 C.ar    1  UNL1        0.1744
      5 C          63.1047   88.7129   11.9099 C.ar    1  UNL1        0.0758
      6 C          63.2401   87.3850   12.5944 C.ar    1  UNL1        0.1390
      7 C          63.9051   87.2971   13.9360 C.ar    1  UNL1        0.0292
      8 C          64.4349   88.5370   14.5932 C.ar    1  UNL1        0.0828
      9 N          64.2995   89.8649   13.9087 N.ar    1  UNL1       -0.2599
     10 C          64.0405   85.9692   14.6204 C.3     1  UNL1        0.0268
     11 C          64.5370   84.5538   14.6232 C.3     1  UNL1        0.0048
     12 C          63.7783   85.0847   15.8031 C.3     1  UNL1        0.0048
     13 N          65.4245   91.6222   15.5794 N.pl3   1  UNL1       -0.1873
     14 H          64.9955   91.4491   16.4485 H       1  UNL1        0.1764
     15 O          66.4454   93.0746   16.7406 O.2     1  UNL1       -0.1545
     16 S          66.7810   92.2604   15.5264 S.O2    1  UNL1        0.0544
     17 O          67.1166   91.4461   14.3121 O.2     1  UNL1       -0.1545
     18 C          68.1374   92.8985   15.4734 C.3     1  UNL1        0.1490
     19 C          69.0602   94.0212   15.8449 C.3     1  UNL1        0.0273
     20 C          69.5640   92.8813   15.0102 C.3     1  UNL1        0.0273
     21 O          62.7103   86.1450   11.9372 O.3     1  UNL1       -0.4756
     22 C          61.5428   86.2334   10.9997 C.3     1  UNL1        0.2051
     23 C          61.6944   85.8042    9.5704 C.3     1  UNL1        0.0404
     24 C          60.6515   86.1799    8.5598 C.3     1  UNL1        0.0036
     25 C          60.8031   85.7507    7.1306 C.3     1  UNL1        0.0001
     26 C          61.9977   84.9459    6.7119 C.3     1  UNL1        0.0000
     27 C          63.0406   84.5702    7.7224 C.3     1  UNL1        0.0001
     28 C          60.7487   86.3032    9.3203 C.3     1  UNL1        0.0000
     29 C          59.4570   86.9847    8.9785 C.3     1  UNL1        0.0001
     30 C          59.6086   86.5556    7.5493 C.3     1  UNL1        0.0000
     31 C          60.4998   86.6091    9.9891 C.3     1  UNL1        0.0036
     32 C          62.8889   84.9994    9.1516 C.3     1  UNL1        0.0036
@<TRIPOS>BOND
     1    15    16    2
     2    16    17    2
     3    16    13    1
     4    13     1    1
     5     1     2   ar
     6     2     3   ar
     7     3     4   ar
     8     4     5   ar
     9     5     6   ar
    10     6    21    1
    11    21    22    1
    12    22    23    1
    13    23    24    1
    14    24    25    1
    15    25    26    1
    16    26    27    1
    17    27    28    1
    18    28    29    1
    19    29    30    1
    20    29    31    1
    21    27    32    1
    22     6     7   ar
    23     7    10    1
    24    10    11    1
    25    11    12    1
    26     7     8   ar
    27     8     9   ar
    28    16    18    1
    29    18    19    1
    30    19    20    1
    31     9     1   ar
    32    20    18    1
    33     9     4   ar
    34    31    23    1
    35    12    10    1
    36    32    23    1
    37    30    25    1
    38    13    14    1
@<TRIPOS>MOLECULE
*****
 32 38 0 0 0
SMALL
GASTEIGER

@<TRIPOS>ATOM
      1 C          64.3430   91.0657   14.3058 C.ar    1  UNL1        0.2409
      2 N          63.8640   91.9296   13.1771 N.ar    1  UNL1       -0.1111
      3 N          63.3257   91.0320   12.1025 N.ar    1  UNL1       -0.1270
      4 C          63.4721   89.6133   12.5672 C.ar    1  UNL1        0.1744
      5 C          63.1141   88.3053   11.9263 C.ar    1  UNL1        0.0758
      6 C          63.3848   87.0180   12.6471 C.ar    1  UNL1        0.1390
      7 C          64.0135   87.0388   14.0088 C.ar    1  UNL1        0.0292
      8 C          64.3715   88.3469   14.6498 C.ar    1  UNL1        0.0828
      9 N          64.1008   89.6341   13.9289 N.ar    1  UNL1       -0.2599
     10 C          64.2842   85.7515   14.7297 C.3     1  UNL1        0.0268
     11 C          63.9884   84.8064   15.8563 C.3     1  UNL1        0.0048
     12 C          65.0490   84.4668   14.8515 C.3     1  UNL1        0.0048
     13 N          64.9564   91.5485   15.5867 N.pl3   1  UNL1       -0.1873
     14 H          64.4643   91.4549   16.4342 H       1  UNL1        0.1764
     15 O          66.6606   91.4101   14.3310 O.2     1  UNL1       -0.1545
     16 S          66.3199   92.1738   15.5762 S.O2    1  UNL1        0.0544
     17 O          65.9792   92.9375   16.8215 O.2     1  UNL1       -0.1545
     18 C          67.6833   92.7991   15.5658 C.3     1  UNL1        0.1490
     19 C          68.5549   94.0164   15.6581 C.3     1  UNL1        0.0273
     20 C          69.1732   92.6649   15.4552 C.3     1  UNL1        0.0273
     21 O          63.0268   85.7099   12.0062 O.3     1  UNL1       -0.4756
     22 C          62.0916   84.7653   12.7012 C.3     1  UNL1        0.2051
     23 C          62.3692   83.2912   12.6901 C.3     1  UNL1        0.0404
     24 C          63.1152   82.6771   11.5428 C.3     1  UNL1        0.0036
     25 C          63.3928   81.2031   11.5318 C.3     1  UNL1        0.0001
     26 C          62.9243   80.3432   12.6681 C.3     1  UNL1        0.0000
     27 C          62.1783   80.9573   13.8154 C.3     1  UNL1        0.0001
     28 C          62.8825   83.3952   11.7249 C.3     1  UNL1        0.0000
     29 C          63.5836   83.5370   10.4065 C.3     1  UNL1        0.0001
     30 C          63.8612   82.0630   10.3955 C.3     1  UNL1        0.0000
     31 C          62.8376   84.1511   11.5538 C.3     1  UNL1        0.0036
     32 C          61.9008   82.4313   13.8264 C.3     1  UNL1        0.0036
@<TRIPOS>BOND
     1    15    16    2
     2    16    17    2
     3    16    13    1
     4    13     1    1
     5     1     2   ar
     6     2     3   ar
     7     3     4   ar
     8     4     5   ar
     9     5     6   ar
    10     6    21    1
    11    21    22    1
    12    22    23    1
    13    23    24    1
    14    24    25    1
    15    25    26    1
    16    26    27    1
    17    27    28    1
    18    28    29    1
    19    29    30    1
    20    29    31    1
    21    27    32    1
    22     6     7   ar
    23     7    10    1
    24    10    11    1
    25    11    12    1
    26     7     8   ar
    27     8     9   ar
    28    16    18    1
    29    18    19    1
    30    19    20    1
    31     9     1   ar
    32    20    18    1
    33     9     4   ar
    34    31    23    1
    35    12    10    1
    36    32    23    1
    37    30    25    1
    38    13    14    1
@<TRIPOS>MOLECULE
*****
 32 38 0 0 0
SMALL
GASTEIGER

@<TRIPOS>ATOM
      1 C          63.7037   91.4515   11.5746 C.ar    1  UNL1        0.2409
      2 N          63.0550   91.6560   10.2377 N.ar    1  UNL1       -0.1111
      3 N          62.4404   90.3541    9.8167 N.ar    1  UNL1       -0.1270
      4 C          62.7092   89.3449   10.8934 C.ar    1  UNL1        0.1744
      5 C          62.3439   87.8961   11.0249 C.ar    1  UNL1        0.0758
      6 C          62.7594   87.1255   12.2429 C.ar    1  UNL1        0.1390
      7 C          63.5402   87.8037   13.3293 C.ar    1  UNL1        0.0292
      8 C          63.9055   89.2526   13.1978 C.ar    1  UNL1        0.0828
      9 N          63.4900   90.0232   11.9799 N.ar    1  UNL1       -0.2599
     10 C          63.9557   87.0330   14.5473 C.3     1  UNL1        0.0268
     11 C          64.9092   86.0978   15.2302 C.3     1  UNL1        0.0048
     12 C          63.7218   86.6333   15.9740 C.3     1  UNL1        0.0048
     13 N          64.4373   92.4925   12.3671 N.pl3   1  UNL1       -0.1873
     14 H          63.9845   93.3300   12.6178 H       1  UNL1        0.1764
     15 O          65.4338   92.1800   14.2135 O.2     1  UNL1       -0.1545
     16 S          65.8608   92.2575   12.7777 S.O2    1  UNL1        0.0544
     17 O          66.2877   92.3349   11.3419 O.2     1  UNL1       -0.1545
     18 C          67.2842   92.0224   13.1884 C.3     1  UNL1        0.1490
     19 C          68.6804   91.5927   12.8478 C.3     1  UNL1        0.0273
     20 C          68.3535   92.0450   14.2401 C.3     1  UNL1        0.0273
     21 O          62.3941   85.6765   12.3744 O.3     1  UNL1       -0.4756
     22 C          63.4714   84.6365   12.4624 C.3     1  UNL1        0.2051
     23 C          63.1083   83.1966   12.6744 C.3     1  UNL1        0.0404
     24 C          63.2838   82.2070   11.5609 C.3     1  UNL1        0.0036
     25 C          62.9207   80.7672   11.7729 C.3     1  UNL1        0.0001
     26 C          62.3820   80.3169   13.0985 C.3     1  UNL1        0.0000
     27 C          62.2065   81.3065   14.2120 C.3     1  UNL1        0.0001
     28 C          63.4101   82.9687   11.6435 C.3     1  UNL1        0.0000
     29 C          63.8225   82.6573   10.2353 C.3     1  UNL1        0.0001
     30 C          63.4593   81.2175   10.4474 C.3     1  UNL1        0.0000
     31 C          63.6469   83.6469   11.3489 C.3     1  UNL1        0.0036
     32 C          62.5696   82.7463   13.9999 C.3     1  UNL1        0.0036
@<TRIPOS>BOND
     1    15    16    2
     2    16    17    2
     3    16    13    1
     4    13     1    1
     5     1     2   ar
     6     2     3   ar
     7     3     4   ar
     8     4     5   ar
     9     5     6   ar
    10     6    21    1
    11    21    22    1
    12    22    23    1
    13    23    24    1
    14    24    25    1
    15    25    26    1
    16    26    27    1
    17    27    28    1
    18    28    29    1
    19    29    30    1
    20    29    31    1
    21    27    32    1
    22     6     7   ar
    23     7    10    1
    24    10    11    1
    25    11    12    1
    26     7     8   ar
    27     8     9   ar
    28    16    18    1
    29    18    19    1
    30    19    20    1
    31     9     1   ar
    32    20    18    1
    33     9     4   ar
    34    31    23    1
    35    12    10    1
    36    32    23    1
    37    30    25    1
    38    13    14    1
@<TRIPOS>MOLECULE
*****
 32 38 0 0 0
SMALL
GASTEIGER

@<TRIPOS>ATOM
      1 C          63.4872   90.9387   12.0341 C.ar    1  UNL1        0.2409
      2 N          62.8159   91.2244   10.7235 N.ar    1  UNL1       -0.1111
      3 N          62.2800   89.9308   10.1856 N.ar    1  UNL1       -0.1270
      4 C          62.6201   88.8456   11.1637 C.ar    1  UNL1        0.1744
      5 C          62.3468   87.3708   11.1616 C.ar    1  UNL1        0.0758
      6 C          62.8197   86.5188   12.3020 C.ar    1  UNL1        0.1390
      7 C          63.5658   87.1418   13.4445 C.ar    1  UNL1        0.0292
      8 C          63.8391   88.6166   13.4466 C.ar    1  UNL1        0.0828
      9 N          63.3662   89.4686   12.3061 N.ar    1  UNL1       -0.2599
     10 C          64.0387   86.2897   14.5849 C.3     1  UNL1        0.0268
     11 C          65.0251   85.3147   15.1562 C.3     1  UNL1        0.0048
     12 C          63.8712   85.7891   15.9889 C.3     1  UNL1        0.0048
     13 N          64.1612   91.9463   12.9176 N.pl3   1  UNL1       -0.1873
     14 H          63.6260   92.6290   13.3831 H       1  UNL1        0.1764
     15 O          65.8241   92.4869   11.7166 O.2     1  UNL1       -0.1545
     16 S          65.6508   91.9137   13.0918 S.O2    1  UNL1        0.0544
     17 O          65.4774   91.3404   14.4670 O.2     1  UNL1       -0.1545
     18 C          67.1403   91.8811   13.2659 C.3     1  UNL1        0.1490
     19 C          68.5085   91.6303   12.7047 C.3     1  UNL1        0.0273
     20 C          68.3519   92.0754   14.1286 C.3     1  UNL1        0.0273
     21 O          62.5464   85.0439   12.3000 O.3     1  UNL1       -0.4756
     22 C          63.4311   84.1183   11.5187 C.3     1  UNL1        0.2051
     23 C          63.1869   82.6387   11.5550 C.3     1  UNL1        0.0404
     24 C          62.6849   81.9920   12.8119 C.3     1  UNL1        0.0036
     25 C          62.4407   80.5125   12.8482 C.3     1  UNL1        0.0001
     26 C          62.6984   79.6797   11.6276 C.3     1  UNL1        0.0000
     27 C          63.2003   80.3263   10.3707 C.3     1  UNL1        0.0001
     28 C          62.8658   82.7174   12.6021 C.3     1  UNL1        0.0000
     29 C          62.4273   82.8249   14.0325 C.3     1  UNL1        0.0001
     30 C          62.1830   81.3454   14.0688 C.3     1  UNL1        0.0000
     31 C          62.9292   83.4716   12.7756 C.3     1  UNL1        0.0036
     32 C          63.4446   81.8058   10.3344 C.3     1  UNL1        0.0036
@<TRIPOS>BOND
     1    15    16    2
     2    16    17    2
     3    16    13    1
     4    13     1    1
     5     1     2   ar
     6     2     3   ar
     7     3     4   ar
     8     4     5   ar
     9     5     6   ar
    10     6    21    1
    11    21    22    1
    12    22    23    1
    13    23    24    1
    14    24    25    1
    15    25    26    1
    16    26    27    1
    17    27    28    1
    18    28    29    1
    19    29    30    1
    20    29    31    1
    21    27    32    1
    22     6     7   ar
    23     7    10    1
    24    10    11    1
    25    11    12    1
    26     7     8   ar
    27     8     9   ar
    28    16    18    1
    29    18    19    1
    30    19    20    1
    31     9     1   ar
    32    20    18    1
    33     9     4   ar
    34    31    23    1
    35    12    10    1
    36    32    23    1
    37    30    25    1
    38    13    14    1
