@<TRIPOS>MOLECULE
*****
 37 39 0 0 0
SMALL
GASTEIGER

@<TRIPOS>ATOM
      1 C          63.7968   87.8672   14.0261 C.2     1  UNL1        0.2485
      2 O          63.3493   88.1523   12.6232 O.2     1  UNL1       -0.2726
      3 N          64.6102   88.8813   14.7745 N.am    1  UNL1       -0.2823
      4 H          64.9040   88.6942   15.6954 H       1  UNL1        0.1549
      5 C          62.6855   87.1056   18.5891 C.3     1  UNL1        0.0949
      6 C          63.0486   87.4497   17.1750 C.2     1  UNL1        0.2269
      7 O          63.3732   88.8673   16.8078 O.2     1  UNL1       -0.2748
      8 N          63.0872   86.3762   16.1281 N.am    1  UNL1       -0.2655
      9 C          62.7886   84.9222   16.3447 C.3     1  UNL1        0.1206
     10 C          62.9480   84.2155   15.0312 C.ar    1  UNL1       -0.0030
     11 C          62.7829   82.7773   14.6388 C.ar    1  UNL1        0.0155
     12 C          63.0148   82.3562   13.2179 C.ar    1  UNL1        0.1054
     13 C          63.4119   83.3734   12.1895 C.ar    1  UNL1        0.0181
     14 C          63.5770   84.8116   12.5819 C.ar    1  UNL1       -0.0011
     15 C          63.3451   85.2327   14.0028 C.ar    1  UNL1        0.0022
     16 C          63.4311   86.5680   14.6807 C.3     1  UNL1        0.1750
     17 S          62.8497   80.9178   12.8255 S.O2    1  UNL1        0.0104
     18 C          62.6845   79.4795   12.4330 C.3     1  UNL1        0.1816
     19 O          62.9880   81.2962   11.3806 O.2     1  UNL1       -0.1686
     20 O          62.7113   80.5395   14.2703 O.2     1  UNL1       -0.1686
     21 C          64.9760   90.1804   14.1199 C.ar    1  UNL1        0.0503
     22 C          64.1152   90.7369   13.0248 C.ar    1  UNL1        0.0144
     23 C          64.4809   92.0361   12.3702 C.ar    1  UNL1       -0.0002
     24 C          65.7074   92.7786   12.8108 C.ar    1  UNL1        0.0182
     25 C          66.5682   92.2222   13.9060 C.ar    1  UNL1       -0.0002
     26 C          66.2025   90.9230   14.5606 C.ar    1  UNL1        0.0144
     27 C          66.0733   94.0778   12.1562 C.3     1  UNL1        0.2827
     28 O          66.1109   94.7441   13.4996 O.3     1  UNL1       -0.3692
     29 H          66.3420   95.6798   13.3900 H       1  UNL1        0.2112
     30 C          66.4391   95.3769   11.5016 C.3     1  UNL1        0.4311
     31 F          66.8049   96.6760   10.8470 F       1  UNL1       -0.1669
     32 F          67.5535   94.6928   10.7667 F       1  UNL1       -0.1669
     33 F          65.8123   95.8714   11.8852 F       1  UNL1       -0.1669
     34 C          66.0357   93.4115   10.8129 C.3     1  UNL1        0.4311
     35 F          65.9980   92.7452    9.4695 F       1  UNL1       -0.1669
     36 F          65.3545   93.8717   10.4831 F       1  UNL1       -0.1669
     37 F          67.1498   92.4089   10.8736 F       1  UNL1       -0.1669
@<TRIPOS>BOND
     1     5     6    1
     2     6     7    2
     3     6     8   am
     4     8     9    1
     5     9    10    1
     6    10    11   ar
     7    11    12   ar
     8    12    17    1
     9    17    18    1
    10    17    19    2
    11    17    20    2
    12    12    13   ar
    13    13    14   ar
    14    14    15   ar
    15    15    16    1
    16    16     1    1
    17     1     2    2
    18     1     3   am
    19     3    21    1
    20    21    22   ar
    21    22    23   ar
    22    23    24   ar
    23    24    27    1
    24    27    28    1
    25    27    30    1
    26    30    31    1
    27    30    32    1
    28    30    33    1
    29    27    34    1
    30    34    35    1
    31    34    36    1
    32    34    37    1
    33    24    25   ar
    34    25    26   ar
    35    16     8    1
    36    26    21   ar
    37    15    10   ar
    38     3     4    1
    39    28    29    1
@<TRIPOS>MOLECULE
*****
 37 39 0 0 0
SMALL
GASTEIGER

@<TRIPOS>ATOM
      1 C          62.7860   88.7434   11.7677 C.2     1  UNL1        0.2485
      2 O          63.5542   87.9194   12.7579 O.2     1  UNL1       -0.2726
      3 N          63.1020   90.2000   11.5985 N.am    1  UNL1       -0.2823
      4 H          62.5978   90.7408   10.9485 H       1  UNL1        0.1549
      5 C          58.0795   89.1405   12.3394 C.3     1  UNL1        0.0949
      6 C          59.5752   89.0801   12.2443 C.2     1  UNL1        0.2269
      7 O          60.4203   89.8340   13.2278 O.2     1  UNL1       -0.2748
      8 N          60.2258   88.2657   11.1656 N.am    1  UNL1       -0.2655
      9 C          59.5149   87.4630   10.1167 C.3     1  UNL1        0.1206
     10 C          60.5513   86.8122    9.2493 C.ar    1  UNL1       -0.0030
     11 C          60.4390   85.9067    8.0588 C.ar    1  UNL1        0.0155
     12 C          61.6782   85.4016    7.3812 C.ar    1  UNL1        0.1054
     13 C          63.0297   85.8021    7.8941 C.ar    1  UNL1        0.0181
     14 C          63.1420   86.7075    9.0846 C.ar    1  UNL1       -0.0011
     15 C          61.9028   87.2126    9.7622 C.ar    1  UNL1        0.0022
     16 C          61.7016   88.1109   10.9466 C.3     1  UNL1        0.1750
     17 S          61.5659   84.4961    6.1906 S.O2    1  UNL1        0.0104
     18 C          61.4537   83.5906    5.0000 C.3     1  UNL1        0.1816
     19 O          60.0798   84.4277    6.3827 O.2     1  UNL1       -0.1686
     20 O          63.0519   84.5646    5.9984 O.2     1  UNL1       -0.1686
     21 C          64.1864   90.8324   12.4196 C.ar    1  UNL1        0.0503
     22 C          64.5220   90.2791   13.7728 C.ar    1  UNL1        0.0144
     23 C          65.6063   90.9115   14.5939 C.ar    1  UNL1       -0.0002
     24 C          66.3550   92.0973   14.0617 C.ar    1  UNL1        0.0182
     25 C          66.0194   92.6507   12.7085 C.ar    1  UNL1       -0.0002
     26 C          64.9351   92.0182   11.8874 C.ar    1  UNL1        0.0144
     27 C          67.4394   92.7299   14.8828 C.3     1  UNL1        0.2827
     28 O          68.3644   92.6755   13.7032 O.3     1  UNL1       -0.3692
     29 H          69.2248   93.0494   13.9495 H       1  UNL1        0.2112
     30 C          68.5237   93.3624   15.7039 C.3     1  UNL1        0.4311
     31 F          69.6080   93.9949   16.5250 F       1  UNL1       -0.1669
     32 F          69.2595   92.0557   15.7389 F       1  UNL1       -0.1669
     33 F          68.1706   94.1738   15.7425 F       1  UNL1       -0.1669
     34 C          66.5144   92.7843   16.0624 C.3     1  UNL1        0.4311
     35 F          65.5893   92.8387   17.2419 F       1  UNL1       -0.1669
     36 F          65.8600   93.2307   15.6660 F       1  UNL1       -0.1669
     37 F          67.2635   92.0649   17.1446 F       1  UNL1       -0.1669
@<TRIPOS>BOND
     1     5     6    1
     2     6     7    2
     3     6     8   am
     4     8     9    1
     5     9    10    1
     6    10    11   ar
     7    11    12   ar
     8    12    17    1
     9    17    18    1
    10    17    19    2
    11    17    20    2
    12    12    13   ar
    13    13    14   ar
    14    14    15   ar
    15    15    16    1
    16    16     1    1
    17     1     2    2
    18     1     3   am
    19     3    21    1
    20    21    22   ar
    21    22    23   ar
    22    23    24   ar
    23    24    27    1
    24    27    28    1
    25    27    30    1
    26    30    31    1
    27    30    32    1
    28    30    33    1
    29    27    34    1
    30    34    35    1
    31    34    36    1
    32    34    37    1
    33    24    25   ar
    34    25    26   ar
    35    16     8    1
    36    26    21   ar
    37    15    10   ar
    38     3     4    1
    39    28    29    1
@<TRIPOS>MOLECULE
*****
 37 39 0 0 0
SMALL
GASTEIGER

@<TRIPOS>ATOM
      1 C          64.0480   89.4454   13.5171 C.2     1  UNL1        0.2485
      2 O          62.8358   89.1813   12.6743 O.2     1  UNL1       -0.2726
      3 N          64.7214   88.3150   14.2376 N.am    1  UNL1       -0.2823
      4 H          65.5171   88.4883   14.7908 H       1  UNL1        0.1549
      5 C          64.3650   92.1214   17.4382 C.3     1  UNL1        0.0949
      6 C          64.2219   91.2003   16.2630 C.2     1  UNL1        0.2269
      7 O          63.6338   89.8331   16.4490 O.2     1  UNL1       -0.2748
      8 N          64.6670   91.6465   14.9018 N.am    1  UNL1       -0.2655
      9 C          65.2702   92.9776   14.5638 C.3     1  UNL1        0.1206
     10 C          65.5631   92.9937   13.0927 C.ar    1  UNL1       -0.0030
     11 C          66.1596   94.0406   12.1995 C.ar    1  UNL1        0.0155
     12 C          66.3340   93.7664   10.7351 C.ar    1  UNL1        0.1054
     13 C          65.9118   92.4452   10.1640 C.ar    1  UNL1        0.0181
     14 C          65.3152   91.3982   11.0573 C.ar    1  UNL1       -0.0011
     15 C          65.1409   91.6724   12.5216 C.ar    1  UNL1        0.0022
     16 C          64.5871   90.8399   13.6397 C.3     1  UNL1        0.1750
     17 S          66.9306   94.8134    9.8418 S.O2    1  UNL1        0.0104
     18 C          67.5271   95.8603    8.9485 C.3     1  UNL1        0.1816
     19 O          65.6930   95.6474    9.9928 O.2     1  UNL1       -0.1686
     20 O          68.1681   93.9794    9.6908 O.2     1  UNL1       -0.1686
     21 C          64.1823   86.9206   14.1150 C.ar    1  UNL1        0.0503
     22 C          63.4135   86.5185   12.8914 C.ar    1  UNL1        0.0144
     23 C          62.8744   85.1241   12.7688 C.ar    1  UNL1       -0.0002
     24 C          63.1042   84.1318   13.8699 C.ar    1  UNL1        0.0182
     25 C          63.8731   84.5339   15.0936 C.ar    1  UNL1       -0.0002
     26 C          64.4121   85.9283   15.2161 C.ar    1  UNL1        0.0144
     27 C          62.5652   82.7373   13.7475 C.3     1  UNL1        0.2827
     28 O          62.0519   82.8121   15.1549 O.3     1  UNL1       -0.3692
     29 H          61.6126   81.9780   15.3836 H       1  UNL1        0.2112
     30 C          62.0262   81.3429   13.6249 C.3     1  UNL1        0.4311
     31 F          61.4872   79.9484   13.5024 F       1  UNL1       -0.1669
     32 F          63.4184   80.7952   13.7342 F       1  UNL1       -0.1669
     33 F          61.1715   81.5634   13.5520 F       1  UNL1       -0.1669
     34 C          63.0785   82.6626   12.3400 C.3     1  UNL1        0.4311
     35 F          63.5918   82.5879   10.9325 F       1  UNL1       -0.1669
     36 F          62.2896   82.6235   11.9393 F       1  UNL1       -0.1669
     37 F          64.5700   82.7005   12.4951 F       1  UNL1       -0.1669
@<TRIPOS>BOND
     1     5     6    1
     2     6     7    2
     3     6     8   am
     4     8     9    1
     5     9    10    1
     6    10    11   ar
     7    11    12   ar
     8    12    17    1
     9    17    18    1
    10    17    19    2
    11    17    20    2
    12    12    13   ar
    13    13    14   ar
    14    14    15   ar
    15    15    16    1
    16    16     1    1
    17     1     2    2
    18     1     3   am
    19     3    21    1
    20    21    22   ar
    21    22    23   ar
    22    23    24   ar
    23    24    27    1
    24    27    28    1
    25    27    30    1
    26    30    31    1
    27    30    32    1
    28    30    33    1
    29    27    34    1
    30    34    35    1
    31    34    36    1
    32    34    37    1
    33    24    25   ar
    34    25    26   ar
    35    16     8    1
    36    26    21   ar
    37    15    10   ar
    38     3     4    1
    39    28    29    1
@<TRIPOS>MOLECULE
*****
 37 39 0 0 0
SMALL
GASTEIGER

@<TRIPOS>ATOM
      1 C          62.2471   87.4705   11.8445 C.2     1  UNL1        0.2485
      2 O          60.8393   86.9590   11.7664 O.2     1  UNL1       -0.2726
      3 N          63.3563   86.5524   12.2651 N.am    1  UNL1       -0.2823
      4 H          64.2804   86.8880   12.3164 H       1  UNL1        0.1549
      5 C          60.4141   90.0727    8.3084 C.3     1  UNL1        0.0949
      6 C          60.9311   89.1703    9.3893 C.2     1  UNL1        0.2269
      7 O          60.4382   87.7569    9.4858 O.2     1  UNL1       -0.2748
      8 N          61.9410   89.6813   10.3736 N.am    1  UNL1       -0.2655
      9 C          62.5234   91.0634   10.4022 C.3     1  UNL1        0.1206
     10 C          63.4882   91.1362   11.5485 C.ar    1  UNL1       -0.0030
     11 C          64.3558   92.2473   12.0610 C.ar    1  UNL1        0.0155
     12 C          65.2373   92.0213   13.2534 C.ar    1  UNL1        0.1054
     13 C          65.2513   90.6842   13.9332 C.ar    1  UNL1        0.0181
     14 C          64.3837   89.5732   13.4206 C.ar    1  UNL1       -0.0011
     15 C          63.5021   89.7992   12.2283 C.ar    1  UNL1        0.0022
     16 C          62.5459   88.9000   11.5022 C.3     1  UNL1        0.1750
     17 S          66.1050   93.1324   13.7660 S.O2    1  UNL1        0.0104
     18 C          66.9726   94.2434   14.2786 C.3     1  UNL1        0.1816
     19 O          66.5926   93.3949   12.3720 O.2     1  UNL1       -0.1686
     20 O          65.6175   92.8699   15.1600 O.2     1  UNL1       -0.1686
     21 C          63.0575   85.1229   12.6075 C.ar    1  UNL1        0.0503
     22 C          63.0794   84.6741   14.0386 C.ar    1  UNL1        0.0144
     23 C          62.7806   83.2445   14.3810 C.ar    1  UNL1       -0.0002
     24 C          62.4599   82.2639   13.2922 C.ar    1  UNL1        0.0182
     25 C          62.4381   82.7127   11.8611 C.ar    1  UNL1       -0.0002
     26 C          62.7369   84.1422   11.5187 C.ar    1  UNL1        0.0144
     27 C          62.1611   80.8343   13.6345 C.3     1  UNL1        0.2827
     28 O          61.4955   81.2773   14.9037 O.3     1  UNL1       -0.3692
     29 H          61.1698   80.5012   15.3859 H       1  UNL1        0.2112
     30 C          61.8623   79.4048   13.9767 C.3     1  UNL1        0.4311
     31 F          61.5635   77.9752   14.3189 F       1  UNL1       -0.1669
     32 F          60.4013   79.7319   14.0678 F       1  UNL1       -0.1669
     33 F          62.6971   79.1101   13.9480 F       1  UNL1       -0.1669
     34 C          62.8267   80.3914   12.3653 C.3     1  UNL1        0.4311
     35 F          63.4923   79.9484   11.0961 F       1  UNL1       -0.1669
     36 F          62.1180   80.0048   12.0010 F       1  UNL1       -0.1669
     37 F          64.2404   80.8715   12.5102 F       1  UNL1       -0.1669
@<TRIPOS>BOND
     1     5     6    1
     2     6     7    2
     3     6     8   am
     4     8     9    1
     5     9    10    1
     6    10    11   ar
     7    11    12   ar
     8    12    17    1
     9    17    18    1
    10    17    19    2
    11    17    20    2
    12    12    13   ar
    13    13    14   ar
    14    14    15   ar
    15    15    16    1
    16    16     1    1
    17     1     2    2
    18     1     3   am
    19     3    21    1
    20    21    22   ar
    21    22    23   ar
    22    23    24   ar
    23    24    27    1
    24    27    28    1
    25    27    30    1
    26    30    31    1
    27    30    32    1
    28    30    33    1
    29    27    34    1
    30    34    35    1
    31    34    36    1
    32    34    37    1
    33    24    25   ar
    34    25    26   ar
    35    16     8    1
    36    26    21   ar
    37    15    10   ar
    38     3     4    1
    39    28    29    1
@<TRIPOS>MOLECULE
*****
 37 39 0 0 0
SMALL
GASTEIGER

@<TRIPOS>ATOM
      1 C          62.2494   86.6850   11.2876 C.2     1  UNL1        0.2485
      2 O          60.9585   86.0948   10.8027 O.2     1  UNL1       -0.2726
      3 N          63.4037   85.7885   11.6256 N.am    1  UNL1       -0.2823
      4 H          64.2510   86.1758   11.9438 H       1  UNL1        0.1549
      5 C          60.3309   90.0793    8.5611 C.3     1  UNL1        0.0949
      6 C          60.8880   88.9366    9.3572 C.2     1  UNL1        0.2269
      7 O          60.5727   87.5240    8.9633 O.2     1  UNL1       -0.2748
      8 N          61.7604   89.2064   10.5472 N.am    1  UNL1       -0.2655
      9 C          62.1603   90.5586   11.0588 C.3     1  UNL1        0.1206
     10 C          63.0332   90.3593   12.2623 C.ar    1  UNL1       -0.0030
     11 C          63.7189   91.3307   13.1767 C.ar    1  UNL1        0.0155
     12 C          64.5443   90.8267   14.3233 C.ar    1  UNL1        0.1054
     13 C          64.6839   89.3514   14.5555 C.ar    1  UNL1        0.0181
     14 C          63.9982   88.3800   13.6411 C.ar    1  UNL1       -0.0011
     15 C          63.1728   88.8840   12.4945 C.ar    1  UNL1        0.0022
     16 C          62.3862   88.1715   11.4345 C.3     1  UNL1        0.1750
     17 S          65.2301   91.7981   15.2378 S.O2    1  UNL1        0.0104
     18 C          65.9158   92.7694   16.1523 C.3     1  UNL1        0.1816
     19 O          66.4769   91.6970   14.4101 O.2     1  UNL1       -0.1686
     20 O          63.9832   91.8991   16.0655 O.2     1  UNL1       -0.1686
     21 C          63.2669   84.3020   11.4787 C.ar    1  UNL1        0.0503
     22 C          62.3994   83.5311   12.4290 C.ar    1  UNL1        0.0144
     23 C          62.2626   82.0446   12.2822 C.ar    1  UNL1       -0.0002
     24 C          62.9933   81.3291   11.1849 C.ar    1  UNL1        0.0182
     25 C          63.8608   82.1000   10.2345 C.ar    1  UNL1       -0.0002
     26 C          63.9976   83.5865   10.3814 C.ar    1  UNL1        0.0144
     27 C          62.8566   79.8425   11.0379 C.3     1  UNL1        0.2827
     28 O          63.0128   79.9750    9.5520 O.3     1  UNL1       -0.3692
     29 H          62.9631   79.0972    9.1421 H       1  UNL1        0.2112
     30 C          62.7198   78.3560   10.8911 C.3     1  UNL1        0.4311
     31 F          62.5831   76.8695   10.7442 F       1  UNL1       -0.1669
     32 F          62.1140   78.5460    9.5321 F       1  UNL1       -0.1669
     33 F          63.0650   78.1376   11.6770 F       1  UNL1       -0.1669
     34 C          62.7004   79.7101   12.5239 C.3     1  UNL1        0.4311
     35 F          62.5441   79.5776   14.0099 F       1  UNL1       -0.1669
     36 F          61.9245   79.2829   12.5132 F       1  UNL1       -0.1669
     37 F          63.9284   80.3695   13.0782 F       1  UNL1       -0.1669
@<TRIPOS>BOND
     1     5     6    1
     2     6     7    2
     3     6     8   am
     4     8     9    1
     5     9    10    1
     6    10    11   ar
     7    11    12   ar
     8    12    17    1
     9    17    18    1
    10    17    19    2
    11    17    20    2
    12    12    13   ar
    13    13    14   ar
    14    14    15   ar
    15    15    16    1
    16    16     1    1
    17     1     2    2
    18     1     3   am
    19     3    21    1
    20    21    22   ar
    21    22    23   ar
    22    23    24   ar
    23    24    27    1
    24    27    28    1
    25    27    30    1
    26    30    31    1
    27    30    32    1
    28    30    33    1
    29    27    34    1
    30    34    35    1
    31    34    36    1
    32    34    37    1
    33    24    25   ar
    34    25    26   ar
    35    16     8    1
    36    26    21   ar
    37    15    10   ar
    38     3     4    1
    39    28    29    1
