@<TRIPOS>MOLECULE
*****
 44 48 0 0 0
SMALL
GASTEIGER

@<TRIPOS>ATOM
      1 C          64.3836   84.3155   14.3714 C.ar    1  UNL1        0.1392
      2 C          64.8572   85.4612   15.2158 C.ar    1  UNL1        0.0384
      3 C          64.4818   86.8669   14.8513 C.ar    1  UNL1        0.0203
      4 C          63.6327   87.1270   13.6423 C.ar    1  UNL1        0.0606
      5 C          63.1591   85.9813   12.7979 C.ar    1  UNL1        0.0256
      6 C          63.5345   84.5756   13.1624 C.ar    1  UNL1        0.0389
      7 C          62.3404   86.5420   11.6731 C.ar    1  UNL1        0.0383
      8 C          62.3080   88.0342   11.8223 C.ar    1  UNL1        0.0433
      9 N          63.1067   88.3958   13.0393 N.ar    1  UNL1       -0.3260
     10 O          64.7590   82.9097   14.7359 O.3     1  UNL1       -0.4690
     11 C          63.7396   81.8132   14.6432 C.3     1  UNL1        0.2508
     12 C          62.5792   79.2351    9.3510 C.3     1  UNL1        0.0327
     13 C          62.8693   79.8796   10.6741 C.ar    1  UNL1       -0.0027
     14 C          62.4297   79.2147   11.9448 C.ar    1  UNL1       -0.0014
     15 C          62.7198   79.8592   13.2678 C.ar    1  UNL1        0.0181
     16 C          63.4495   81.1686   13.3202 C.ar    1  UNL1        0.1026
     17 N          63.8892   81.8336   12.0495 N.ar    1  UNL1       -0.2448
     18 C          63.5991   81.1891   10.7265 C.ar    1  UNL1        0.0943
     19 S          61.6715   85.7495   10.5893 S.3     1  UNL1       -0.1142
     20 C          62.3335   85.6007    9.2515 C.3     1  UNL1        0.0434
     21 C          61.3095   86.5125    8.6433 C.3     1  UNL1        0.0112
     22 C          63.3575   84.6888    9.8597 C.3     1  UNL1        0.0112
     23 C          62.9955   85.4518    7.9138 C.3     1  UNL1        0.0112
     24 C          61.6010   88.9960   10.9138 C.3     1  UNL1        0.0495
     25 C          60.2943   89.6013   11.3332 C.3     1  UNL1        0.0376
     26 C          59.8009   88.2475   11.7500 C.3     1  UNL1        0.0059
     27 C          60.7876   90.9552   10.9165 C.3     1  UNL1        0.0059
     28 C          58.9875   90.2066   11.7527 C.2     1  UNL1        0.0500
     29 O          58.6802   91.6355   11.4153 O.co2   1  UNL1       -0.5492
     30 O          57.9880   89.3830   12.5095 O.co2   1  UNL1       -0.5492
     31 C          63.3387   89.7826   13.5617 C.3     1  UNL1        0.1324
     32 C          64.0544   90.7930   12.7151 C.ar    1  UNL1        0.0004
     33 C          65.1511   91.6268   13.3084 C.ar    1  UNL1       -0.0023
     34 C          65.8668   92.6372   12.4617 C.ar    1  UNL1        0.0012
     35 C          65.4857   92.8138   11.0216 C.ar    1  UNL1        0.0176
     36 C          64.3890   91.9800   10.4284 C.ar    1  UNL1        0.0012
     37 C          63.6733   90.9696   11.2751 C.ar    1  UNL1       -0.0023
     38 C          66.2014   93.8242   10.1750 C.ar    1  UNL1        0.0815
     39 C          67.3722   93.4054    9.3361 C.ar    1  UNL1        0.0215
     40 C          68.0879   94.4158    8.4894 C.ar    1  UNL1        0.0328
     41 C          67.6327   95.8450    8.4816 C.ar    1  UNL1        0.1592
     42 F          68.3484   96.8556    7.6349 F       1  UNL1       -0.2025
     43 C          66.4619   96.2639    9.3204 C.ar    1  UNL1        0.1283
     44 N          65.7462   95.2534   10.1671 N.ar    1  UNL1       -0.2415
@<TRIPOS>UNITY_ATOM_ATTR
29 1
charge -1
@<TRIPOS>BOND
     1    12    13    1
     2    13    14   ar
     3    14    15   ar
     4    15    16   ar
     5    16    11    1
     6    11    10    1
     7    10     1    1
     8     1     2   ar
     9     2     3   ar
    10     3     4   ar
    11     4     5   ar
    12     5     6   ar
    13     5     7   ar
    14     7    19    1
    15    19    20    1
    16    20    21    1
    17    20    22    1
    18    20    23    1
    19     7     8   ar
    20     8    24    1
    21    24    25    1
    22    25    26    1
    23    25    27    1
    24    25    28    1
    25    28    29   ar
    26    28    30   ar
    27     8     9   ar
    28     9    31    1
    29    31    32    1
    30    32    33   ar
    31    33    34   ar
    32    34    35   ar
    33    35    38    1
    34    38    39   ar
    35    39    40   ar
    36    40    41   ar
    37    41    42    1
    38    41    43   ar
    39    43    44   ar
    40    35    36   ar
    41    36    37   ar
    42    16    17   ar
    43    17    18   ar
    44    18    13   ar
    45     6     1   ar
    46    37    32   ar
    47     9     4   ar
    48    44    38   ar
@<TRIPOS>MOLECULE
*****
 44 48 0 0 0
SMALL
GASTEIGER

@<TRIPOS>ATOM
      1 C          64.1471   90.9721   12.8071 C.ar    1  UNL1        0.1392
      2 C          63.4987   90.7665   11.4702 C.ar    1  UNL1        0.0384
      3 C          62.9881   89.4097   11.0851 C.ar    1  UNL1        0.0203
      4 C          63.1258   88.2586   12.0369 C.ar    1  UNL1        0.0606
      5 C          63.7741   88.4642   13.3738 C.ar    1  UNL1        0.0256
      6 C          64.2848   89.8210   13.7589 C.ar    1  UNL1        0.0389
      7 C          63.7697   87.1507   14.0981 C.ar    1  UNL1        0.0383
      8 C          63.1186   86.1332   13.2088 C.ar    1  UNL1        0.0433
      9 N          62.7206   86.8179   11.9349 N.ar    1  UNL1       -0.3260
     10 O          64.6578   92.3290   13.1923 O.3     1  UNL1       -0.4690
     11 C          66.0864   92.6972   12.9217 C.3     1  UNL1        0.2508
     12 C          67.4486   96.1904    8.2375 C.3     1  UNL1        0.0327
     13 C          67.1081   95.3171    9.4086 C.ar    1  UNL1       -0.0027
     14 C          67.3170   93.8341    9.3241 C.ar    1  UNL1       -0.0014
     15 C          66.9765   92.9608   10.4951 C.ar    1  UNL1        0.0181
     16 C          66.4270   93.5705   11.7506 C.ar    1  UNL1        0.1026
     17 N          66.2180   95.0535   11.8351 N.ar    1  UNL1       -0.2448
     18 C          66.5586   95.9268   10.6641 C.ar    1  UNL1        0.0943
     19 S          64.3197   86.8988   15.4707 S.3     1  UNL1       -0.1142
     20 C          63.3866   86.7182   16.6311 C.3     1  UNL1        0.0434
     21 C          63.1940   88.2038   16.7075 C.3     1  UNL1        0.0112
     22 C          63.5792   85.2325   16.5547 C.3     1  UNL1        0.0112
     23 C          62.4535   86.5375   17.7916 C.3     1  UNL1        0.0112
     24 C          62.9032   84.6852   13.5360 C.3     1  UNL1        0.0495
     25 C          63.6263   83.6251   12.7592 C.3     1  UNL1        0.0376
     26 C          64.9225   84.0539   13.3806 C.3     1  UNL1        0.0059
     27 C          62.3302   83.1964   12.1377 C.3     1  UNL1        0.0059
     28 C          64.3494   82.5651   11.9823 C.2     1  UNL1        0.0500
     29 O          64.9398   82.8889   10.6420 O.co2   1  UNL1       -0.5492
     30 O          64.4821   81.1813   12.5459 O.co2   1  UNL1       -0.5492
     31 C          62.0375   86.1748   10.7645 C.3     1  UNL1        0.1324
     32 C          61.2904   87.0195    9.7754 C.ar    1  UNL1        0.0004
     33 C          60.9367   86.4615    8.4287 C.ar    1  UNL1       -0.0023
     34 C          60.1896   87.3061    7.4395 C.ar    1  UNL1        0.0012
     35 C          59.7962   88.7088    7.7971 C.ar    1  UNL1        0.0176
     36 C          60.1498   89.2667    9.1438 C.ar    1  UNL1        0.0012
     37 C          60.8969   88.4221   10.1330 C.ar    1  UNL1       -0.0023
     38 C          59.0491   89.5534    6.8080 C.ar    1  UNL1        0.0815
     39 C          59.7934   90.5141    5.9288 C.ar    1  UNL1        0.0215
     40 C          59.0463   91.3587    4.9396 C.ar    1  UNL1        0.0328
     41 C          57.5549   91.2427    4.8296 C.ar    1  UNL1        0.1592
     42 F          56.8077   92.0873    3.8404 F       1  UNL1       -0.2025
     43 C          56.8106   90.2819    5.7088 C.ar    1  UNL1        0.1283
     44 N          57.5577   89.4373    6.6980 N.ar    1  UNL1       -0.2415
@<TRIPOS>UNITY_ATOM_ATTR
29 1
charge -1
@<TRIPOS>BOND
     1    12    13    1
     2    13    14   ar
     3    14    15   ar
     4    15    16   ar
     5    16    11    1
     6    11    10    1
     7    10     1    1
     8     1     2   ar
     9     2     3   ar
    10     3     4   ar
    11     4     5   ar
    12     5     6   ar
    13     5     7   ar
    14     7    19    1
    15    19    20    1
    16    20    21    1
    17    20    22    1
    18    20    23    1
    19     7     8   ar
    20     8    24    1
    21    24    25    1
    22    25    26    1
    23    25    27    1
    24    25    28    1
    25    28    29   ar
    26    28    30   ar
    27     8     9   ar
    28     9    31    1
    29    31    32    1
    30    32    33   ar
    31    33    34   ar
    32    34    35   ar
    33    35    38    1
    34    38    39   ar
    35    39    40   ar
    36    40    41   ar
    37    41    42    1
    38    41    43   ar
    39    43    44   ar
    40    35    36   ar
    41    36    37   ar
    42    16    17   ar
    43    17    18   ar
    44    18    13   ar
    45     6     1   ar
    46    37    32   ar
    47     9     4   ar
    48    44    38   ar
@<TRIPOS>MOLECULE
*****
 44 48 0 0 0
SMALL
GASTEIGER

@<TRIPOS>ATOM
      1 C          63.9102   90.5555   12.8494 C.ar    1  UNL1        0.1392
      2 C          62.8707   90.6700   11.7742 C.ar    1  UNL1        0.0384
      3 C          62.1360   89.4482   11.3081 C.ar    1  UNL1        0.0203
      4 C          62.4408   88.1118   11.9174 C.ar    1  UNL1        0.0606
      5 C          63.4803   87.9973   12.9927 C.ar    1  UNL1        0.0256
      6 C          64.2150   89.2191   13.4587 C.ar    1  UNL1        0.0389
      7 C          63.5654   86.5572   13.4036 C.ar    1  UNL1        0.0383
      8 C          62.5784   85.7817   12.5823 C.ar    1  UNL1        0.0433
      9 N          61.8834   86.7424   11.6637 N.ar    1  UNL1       -0.3260
     10 O          64.6450   91.7774   13.3155 O.3     1  UNL1       -0.4690
     11 C          66.0818   91.9793   12.9349 C.3     1  UNL1        0.2508
     12 C          67.5102   95.7854    8.5221 C.3     1  UNL1        0.0327
     13 C          67.1531   94.8338    9.6253 C.ar    1  UNL1       -0.0027
     14 C          66.4557   95.3378   10.8540 C.ar    1  UNL1       -0.0014
     15 C          66.0986   94.3863   11.9572 C.ar    1  UNL1        0.0181
     16 C          66.4389   92.9308   11.8317 C.ar    1  UNL1        0.1026
     17 N          67.1363   92.4269   10.6030 N.ar    1  UNL1       -0.2448
     18 C          67.4934   93.3784    9.4998 C.ar    1  UNL1        0.0943
     19 S          64.4773   85.9919   14.4518 S.3     1  UNL1       -0.1142
     20 C          64.2140   84.6283   15.0188 C.3     1  UNL1        0.0434
     21 C          65.2933   84.0576   14.1475 C.3     1  UNL1        0.0112
     22 C          63.1346   85.1991   15.8902 C.3     1  UNL1        0.0112
     23 C          63.9507   83.2648   15.5858 C.3     1  UNL1        0.0112
     24 C          62.3302   84.3046   12.6650 C.3     1  UNL1        0.0495
     25 C          62.9990   83.3762   11.6950 C.3     1  UNL1        0.0376
     26 C          62.4884   82.1981   12.4705 C.3     1  UNL1        0.0059
     27 C          63.5096   84.5543   10.9195 C.3     1  UNL1        0.0059
     28 C          63.6678   82.4479   10.7250 C.2     1  UNL1        0.0500
     29 O          64.9400   82.8614   10.0466 O.co2   1  UNL1       -0.5492
     30 O          63.0643   81.1059   10.4335 O.co2   1  UNL1       -0.5492
     31 C          60.8180   86.3950   10.6666 C.3     1  UNL1        0.1324
     32 C          60.5125   87.3341    9.5375 C.ar    1  UNL1        0.0004
     33 C          60.3977   88.8069    9.7972 C.ar    1  UNL1       -0.0023
     34 C          60.0922   89.7460    8.6681 C.ar    1  UNL1        0.0012
     35 C          59.9015   89.2121    7.2793 C.ar    1  UNL1        0.0176
     36 C          60.0163   87.7393    7.0197 C.ar    1  UNL1        0.0012
     37 C          60.3218   86.8002    8.1488 C.ar    1  UNL1       -0.0023
     38 C          59.5960   90.1511    6.1503 C.ar    1  UNL1        0.0815
     39 C          58.1768   90.5438    5.8644 C.ar    1  UNL1        0.0215
     40 C          57.8713   91.4828    4.7353 C.ar    1  UNL1        0.0328
     41 C          58.9850   92.0293    3.8921 C.ar    1  UNL1        0.1592
     42 F          58.6795   92.9684    2.7630 F       1  UNL1       -0.2025
     43 C          60.4042   91.6367    4.1779 C.ar    1  UNL1        0.1283
     44 N          60.7097   90.6976    5.3070 N.ar    1  UNL1       -0.2415
@<TRIPOS>UNITY_ATOM_ATTR
29 1
charge -1
@<TRIPOS>BOND
     1    12    13    1
     2    13    14   ar
     3    14    15   ar
     4    15    16   ar
     5    16    11    1
     6    11    10    1
     7    10     1    1
     8     1     2   ar
     9     2     3   ar
    10     3     4   ar
    11     4     5   ar
    12     5     6   ar
    13     5     7   ar
    14     7    19    1
    15    19    20    1
    16    20    21    1
    17    20    22    1
    18    20    23    1
    19     7     8   ar
    20     8    24    1
    21    24    25    1
    22    25    26    1
    23    25    27    1
    24    25    28    1
    25    28    29   ar
    26    28    30   ar
    27     8     9   ar
    28     9    31    1
    29    31    32    1
    30    32    33   ar
    31    33    34   ar
    32    34    35   ar
    33    35    38    1
    34    38    39   ar
    35    39    40   ar
    36    40    41   ar
    37    41    42    1
    38    41    43   ar
    39    43    44   ar
    40    35    36   ar
    41    36    37   ar
    42    16    17   ar
    43    17    18   ar
    44    18    13   ar
    45     6     1   ar
    46    37    32   ar
    47     9     4   ar
    48    44    38   ar
@<TRIPOS>MOLECULE
*****
 44 48 0 0 0
SMALL
GASTEIGER

@<TRIPOS>ATOM
      1 C          63.7469   90.4803   12.7801 C.ar    1  UNL1        0.1392
      2 C          62.9864   90.3530   11.4935 C.ar    1  UNL1        0.0384
      3 C          62.5006   89.0085   11.0394 C.ar    1  UNL1        0.0203
      4 C          62.7753   87.7913   11.8718 C.ar    1  UNL1        0.0606
      5 C          63.5358   87.9186   13.1584 C.ar    1  UNL1        0.0256
      6 C          64.0216   89.2631   13.6126 C.ar    1  UNL1        0.0389
      7 C          63.6549   86.5513   13.7637 C.ar    1  UNL1        0.0383
      8 C          62.9680   85.5790   12.8512 C.ar    1  UNL1        0.0433
      9 N          62.4244   86.3453   11.6819 N.ar    1  UNL1       -0.3260
     10 O          64.2327   91.8248   13.2343 O.3     1  UNL1       -0.4690
     11 C          65.5849   92.3163   12.8101 C.3     1  UNL1        0.2508
     12 C          69.9992   92.8094   16.8439 C.3     1  UNL1        0.0327
     13 C          68.8956   92.6861   15.8354 C.ar    1  UNL1       -0.0027
     14 C          67.4686   92.8718   16.2588 C.ar    1  UNL1       -0.0014
     15 C          66.3650   92.7485   15.2503 C.ar    1  UNL1        0.0181
     16 C          66.6885   92.4396   13.8186 C.ar    1  UNL1        0.1026
     17 N          68.1155   92.2538   13.3953 N.ar    1  UNL1       -0.2448
     18 C          69.2190   92.3771   14.4037 C.ar    1  UNL1        0.0943
     19 S          64.3405   86.2154   15.0549 S.3     1  UNL1       -0.1142
     20 C          63.5448   86.1141   16.3224 C.3     1  UNL1        0.0434
     21 C          63.5315   87.6099   16.4336 C.3     1  UNL1        0.0112
     22 C          63.5581   84.6183   16.2112 C.3     1  UNL1        0.0112
     23 C          62.7491   86.0128   17.5899 C.3     1  UNL1        0.0112
     24 C          62.8462   84.0999   13.0696 C.3     1  UNL1        0.0495
     25 C          63.2989   83.1448   12.0053 C.3     1  UNL1        0.0376
     26 C          61.9787   82.4365   12.0793 C.3     1  UNL1        0.0059
     27 C          64.6191   83.8531   11.9313 C.3     1  UNL1        0.0059
     28 C          63.7516   82.1897   10.9410 C.2     1  UNL1        0.0500
     29 O          64.8678   82.5727   10.0151 O.co2   1  UNL1       -0.5492
     30 O          63.0881   80.8515   10.8025 O.co2   1  UNL1       -0.5492
     31 C          61.6635   85.7672   10.5257 C.3     1  UNL1        0.1324
     32 C          60.9477   86.6749    9.5699 C.ar    1  UNL1        0.0004
     33 C          60.9153   86.3477    8.1064 C.ar    1  UNL1       -0.0023
     34 C          60.1996   87.2555    7.1505 C.ar    1  UNL1        0.0012
     35 C          59.5161   88.4905    7.6583 C.ar    1  UNL1        0.0176
     36 C          59.5485   88.8176    9.1218 C.ar    1  UNL1        0.0012
     37 C          60.2643   87.9099   10.0776 C.ar    1  UNL1       -0.0023
     38 C          58.8004   89.3983    6.7025 C.ar    1  UNL1        0.0815
     39 C          59.5817   90.3392    5.8340 C.ar    1  UNL1        0.0215
     40 C          58.8659   91.2469    4.8782 C.ar    1  UNL1        0.0328
     41 C          57.3688   91.2138    4.7908 C.ar    1  UNL1        0.1592
     42 F          56.6529   92.1216    3.8349 F       1  UNL1       -0.2025
     43 C          56.5875   90.2729    5.6592 C.ar    1  UNL1        0.1283
     44 N          57.3033   89.3651    6.6151 N.ar    1  UNL1       -0.2415
@<TRIPOS>UNITY_ATOM_ATTR
29 1
charge -1
@<TRIPOS>BOND
     1    12    13    1
     2    13    14   ar
     3    14    15   ar
     4    15    16   ar
     5    16    11    1
     6    11    10    1
     7    10     1    1
     8     1     2   ar
     9     2     3   ar
    10     3     4   ar
    11     4     5   ar
    12     5     6   ar
    13     5     7   ar
    14     7    19    1
    15    19    20    1
    16    20    21    1
    17    20    22    1
    18    20    23    1
    19     7     8   ar
    20     8    24    1
    21    24    25    1
    22    25    26    1
    23    25    27    1
    24    25    28    1
    25    28    29   ar
    26    28    30   ar
    27     8     9   ar
    28     9    31    1
    29    31    32    1
    30    32    33   ar
    31    33    34   ar
    32    34    35   ar
    33    35    38    1
    34    38    39   ar
    35    39    40   ar
    36    40    41   ar
    37    41    42    1
    38    41    43   ar
    39    43    44   ar
    40    35    36   ar
    41    36    37   ar
    42    16    17   ar
    43    17    18   ar
    44    18    13   ar
    45     6     1   ar
    46    37    32   ar
    47     9     4   ar
    48    44    38   ar
@<TRIPOS>MOLECULE
*****
 44 48 0 0 0
SMALL
GASTEIGER

@<TRIPOS>ATOM
      1 C          62.2409   90.5880   10.7657 C.ar    1  UNL1        0.1392
      2 C          61.8481   89.4026   11.5965 C.ar    1  UNL1        0.0384
      3 C          62.5254   89.1504   12.9109 C.ar    1  UNL1        0.0203
      4 C          63.5956   90.0837   13.3944 C.ar    1  UNL1        0.0606
      5 C          63.9883   91.2692   12.5635 C.ar    1  UNL1        0.0256
      6 C          63.3110   91.5213   11.2492 C.ar    1  UNL1        0.0389
      7 C          65.0692   92.0095   13.2940 C.ar    1  UNL1        0.0383
      8 C          65.3445   91.2815   14.5763 C.ar    1  UNL1        0.0433
      9 N          64.4337   90.0913   14.6384 N.ar    1  UNL1       -0.3260
     10 O          61.5635   90.8402    9.4513 O.3     1  UNL1       -0.4690
     11 C          60.3286   90.0720    9.0843 C.3     1  UNL1        0.2508
     12 C          60.7980   84.5029    6.9014 C.3     1  UNL1        0.0327
     13 C          60.6807   85.8952    7.4471 C.ar    1  UNL1       -0.0027
     14 C          59.5223   86.7614    7.0497 C.ar    1  UNL1       -0.0014
     15 C          59.4050   88.1536    7.5954 C.ar    1  UNL1        0.0181
     16 C          60.4459   88.6797    8.5386 C.ar    1  UNL1        0.1026
     17 N          61.6043   87.8135    8.9360 N.ar    1  UNL1       -0.2448
     18 C          61.7216   86.4212    8.3903 C.ar    1  UNL1        0.0943
     19 S          65.7545   93.2584   12.8245 S.3     1  UNL1       -0.1142
     20 C          66.2993   93.3358   11.4291 C.3     1  UNL1        0.0434
     21 C          65.5766   94.6333   11.2188 C.3     1  UNL1        0.0112
     22 C          67.0220   92.0383   11.6393 C.3     1  UNL1        0.0112
     23 C          66.8441   93.4131   10.0336 C.3     1  UNL1        0.0112
     24 C          66.3535   91.6748   15.6143 C.3     1  UNL1        0.0495
     25 C          67.6847   92.2250   15.1958 C.3     1  UNL1        0.0376
     26 C          68.0018   90.9320   14.5048 C.3     1  UNL1        0.0059
     27 C          67.3675   93.5181   15.8867 C.3     1  UNL1        0.0059
     28 C          69.0159   92.7752   14.7772 C.2     1  UNL1        0.0500
     29 O          69.7878   92.1132   13.6746 O.co2   1  UNL1       -0.5492
     30 O          69.5751   93.9874   15.4613 O.co2   1  UNL1       -0.5492
     31 C          64.3719   89.0854   15.7494 C.3     1  UNL1        0.1324
     32 C          64.0680   87.6486   15.4441 C.ar    1  UNL1        0.0004
     33 C          64.5163   87.0467   14.1454 C.ar    1  UNL1       -0.0023
     34 C          64.2123   85.6099   13.8401 C.ar    1  UNL1        0.0012
     35 C          63.4600   84.7750   14.8337 C.ar    1  UNL1        0.0176
     36 C          63.0117   85.3770   16.1323 C.ar    1  UNL1        0.0012
     37 C          63.3157   86.8138   16.4376 C.ar    1  UNL1       -0.0023
     38 C          63.1560   83.3382   14.5284 C.ar    1  UNL1        0.0815
     39 C          61.7606   82.8145   14.6976 C.ar    1  UNL1        0.0215
     40 C          61.4567   81.3777   14.3923 C.ar    1  UNL1        0.0328
     41 C          62.5481   80.4646   13.9179 C.ar    1  UNL1        0.1592
     42 F          62.2442   79.0277   13.6126 F       1  UNL1       -0.2025
     43 C          63.9434   80.9883   13.7487 C.ar    1  UNL1        0.1283
     44 N          64.2474   82.4251   14.0540 N.ar    1  UNL1       -0.2415
@<TRIPOS>UNITY_ATOM_ATTR
29 1
charge -1
@<TRIPOS>BOND
     1    12    13    1
     2    13    14   ar
     3    14    15   ar
     4    15    16   ar
     5    16    11    1
     6    11    10    1
     7    10     1    1
     8     1     2   ar
     9     2     3   ar
    10     3     4   ar
    11     4     5   ar
    12     5     6   ar
    13     5     7   ar
    14     7    19    1
    15    19    20    1
    16    20    21    1
    17    20    22    1
    18    20    23    1
    19     7     8   ar
    20     8    24    1
    21    24    25    1
    22    25    26    1
    23    25    27    1
    24    25    28    1
    25    28    29   ar
    26    28    30   ar
    27     8     9   ar
    28     9    31    1
    29    31    32    1
    30    32    33   ar
    31    33    34   ar
    32    34    35   ar
    33    35    38    1
    34    38    39   ar
    35    39    40   ar
    36    40    41   ar
    37    41    42    1
    38    41    43   ar
    39    43    44   ar
    40    35    36   ar
    41    36    37   ar
    42    16    17   ar
    43    17    18   ar
    44    18    13   ar
    45     6     1   ar
    46    37    32   ar
    47     9     4   ar
    48    44    38   ar
@<TRIPOS>MOLECULE
*****
 44 48 0 0 0
SMALL
GASTEIGER

@<TRIPOS>ATOM
      1 C          59.7166   88.8606    7.4490 C.ar    1  UNL1        0.1392
      2 C          59.4849   89.5394    8.7663 C.ar    1  UNL1        0.0384
      3 C          60.1873   89.0478    9.9971 C.ar    1  UNL1        0.0203
      4 C          61.1215   87.8774    9.9105 C.ar    1  UNL1        0.0606
      5 C          61.3533   87.1986    8.5932 C.ar    1  UNL1        0.0256
      6 C          60.6508   87.6902    7.3624 C.ar    1  UNL1        0.0389
      7 C          62.3235   86.0763    8.8144 C.ar    1  UNL1        0.0383
      8 C          62.6915   86.0615   10.2685 C.ar    1  UNL1        0.0433
      9 N          61.9486   87.1746   10.9460 N.ar    1  UNL1       -0.3260
     10 O          59.0142   89.3522    6.2181 O.3     1  UNL1       -0.4690
     11 C          58.9244   90.8240    5.9431 C.3     1  UNL1        0.2508
     12 C          62.0938   93.2366    1.4560 C.3     1  UNL1        0.0327
     13 C          61.3014   92.6334    2.5778 C.ar    1  UNL1       -0.0027
     14 C          61.9569   91.6769    3.5293 C.ar    1  UNL1       -0.0014
     15 C          61.1645   91.0737    4.6511 C.ar    1  UNL1        0.0181
     16 C          59.7168   91.4272    4.8213 C.ar    1  UNL1        0.1026
     17 N          59.0614   92.3837    3.8698 N.ar    1  UNL1       -0.2448
     18 C          59.8537   92.9869    2.7481 C.ar    1  UNL1        0.0943
     19 S          62.8359   85.1343    7.7656 S.3     1  UNL1       -0.1142
     20 C          61.9265   84.6676    6.6678 C.3     1  UNL1        0.0434
     21 C          63.1066   84.5168    5.7543 C.3     1  UNL1        0.0112
     22 C          60.7463   84.8184    7.5814 C.3     1  UNL1        0.0112
     23 C          61.0171   84.2009    5.5700 C.3     1  UNL1        0.0112
     24 C          63.6364   85.1019   10.9292 C.3     1  UNL1        0.0495
     25 C          63.1979   83.6969   11.2184 C.3     1  UNL1        0.0376
     26 C          64.0017   83.2057   10.0511 C.3     1  UNL1        0.0059
     27 C          62.3942   84.1880   12.3858 C.3     1  UNL1        0.0059
     28 C          62.7595   82.2919   11.5077 C.2     1  UNL1        0.0500
     29 O          63.0745   81.1929   10.5367 O.co2   1  UNL1       -0.5492
     30 O          62.0058   81.9858   12.7681 O.co2   1  UNL1       -0.5492
     31 C          62.0201   87.5237   12.4031 C.3     1  UNL1        0.1324
     32 C          63.0142   88.5393   12.8830 C.ar    1  UNL1        0.0004
     33 C          63.1242   89.8660   12.1918 C.ar    1  UNL1       -0.0023
     34 C          64.1183   90.8816   12.6717 C.ar    1  UNL1        0.0012
     35 C          65.0023   90.5705   13.8430 C.ar    1  UNL1        0.0176
     36 C          64.8922   89.2439   14.5342 C.ar    1  UNL1        0.0012
     37 C          63.8982   88.2282   14.0542 C.ar    1  UNL1       -0.0023
     38 C          65.9963   91.5861   14.3230 C.ar    1  UNL1        0.0815
     39 C          67.1338   91.1638   15.2049 C.ar    1  UNL1        0.0215
     40 C          68.1278   92.1794   15.6849 C.ar    1  UNL1        0.0328
     41 C          67.9844   93.6174   15.2829 C.ar    1  UNL1        0.1592
     42 F          68.9785   94.6331   15.7628 F       1  UNL1       -0.2025
     43 C          66.8470   94.0398   14.4009 C.ar    1  UNL1        0.1283
     44 N          65.8530   93.0241   13.9210 N.ar    1  UNL1       -0.2415
@<TRIPOS>UNITY_ATOM_ATTR
29 1
charge -1
@<TRIPOS>BOND
     1    12    13    1
     2    13    14   ar
     3    14    15   ar
     4    15    16   ar
     5    16    11    1
     6    11    10    1
     7    10     1    1
     8     1     2   ar
     9     2     3   ar
    10     3     4   ar
    11     4     5   ar
    12     5     6   ar
    13     5     7   ar
    14     7    19    1
    15    19    20    1
    16    20    21    1
    17    20    22    1
    18    20    23    1
    19     7     8   ar
    20     8    24    1
    21    24    25    1
    22    25    26    1
    23    25    27    1
    24    25    28    1
    25    28    29   ar
    26    28    30   ar
    27     8     9   ar
    28     9    31    1
    29    31    32    1
    30    32    33   ar
    31    33    34   ar
    32    34    35   ar
    33    35    38    1
    34    38    39   ar
    35    39    40   ar
    36    40    41   ar
    37    41    42    1
    38    41    43   ar
    39    43    44   ar
    40    35    36   ar
    41    36    37   ar
    42    16    17   ar
    43    17    18   ar
    44    18    13   ar
    45     6     1   ar
    46    37    32   ar
    47     9     4   ar
    48    44    38   ar
@<TRIPOS>MOLECULE
*****
 44 48 0 0 0
SMALL
GASTEIGER

@<TRIPOS>ATOM
      1 C          63.4926   85.5816   13.5292 C.ar    1  UNL1        0.1392
      2 C          63.9026   86.9166   14.0764 C.ar    1  UNL1        0.0384
      3 C          63.5939   88.1683   13.3097 C.ar    1  UNL1        0.0203
      4 C          62.8752   88.0850   11.9958 C.ar    1  UNL1        0.0606
      5 C          62.4651   86.7499   11.4485 C.ar    1  UNL1        0.0256
      6 C          62.7739   85.4982   12.2152 C.ar    1  UNL1        0.0389
      7 C          61.7743   86.9790   10.1370 C.ar    1  UNL1        0.0383
      8 C          61.7573   88.4556    9.8736 C.ar    1  UNL1        0.0433
      9 N          62.4377   89.1392   11.0224 N.ar    1  UNL1       -0.3260
     10 O          63.8013   84.3298   14.2959 O.3     1  UNL1       -0.4690
     11 C          64.6946   83.2843   13.6967 C.3     1  UNL1        0.2508
     12 C          62.5377   79.5050    9.5657 C.3     1  UNL1        0.0327
     13 C          63.0769   80.4498   10.5985 C.ar    1  UNL1       -0.0027
     14 C          63.8280   81.6766   10.1733 C.ar    1  UNL1       -0.0014
     15 C          64.3672   82.6214   11.2060 C.ar    1  UNL1        0.0181
     16 C          64.1553   82.3395   12.6639 C.ar    1  UNL1        0.1026
     17 N          63.4042   81.1127   13.0891 N.ar    1  UNL1       -0.2448
     18 C          62.8650   80.1678   12.0564 C.ar    1  UNL1        0.0943
     19 S          61.2010   85.9177    9.2453 S.3     1  UNL1       -0.1142
     20 C          61.9891   85.4190    8.0705 C.3     1  UNL1        0.0434
     21 C          60.7494   85.4481    7.2265 C.3     1  UNL1        0.0112
     22 C          63.2288   85.3899    8.9145 C.3     1  UNL1        0.0112
     23 C          62.7772   84.9203    6.8957 C.3     1  UNL1        0.0112
     24 C          61.1641   89.1302    8.6723 C.3     1  UNL1        0.0495
     25 C          59.8463   88.6663    8.1260 C.3     1  UNL1        0.0376
     26 C          60.2579   89.1123    6.7543 C.3     1  UNL1        0.0059
     27 C          59.4347   88.2202    9.4978 C.3     1  UNL1        0.0059
     28 C          58.5286   88.2023    7.5798 C.2     1  UNL1        0.0500
     29 O          58.0369   86.8179    7.8822 O.co2   1  UNL1       -0.5492
     30 O          57.7026   89.1230    6.7311 O.co2   1  UNL1       -0.5492
     31 C          62.6444   90.6173   11.1717 C.3     1  UNL1        0.1324
     32 C          63.8214   91.1359   11.9435 C.ar    1  UNL1        0.0004
     33 C          64.8813   91.9367   11.2469 C.ar    1  UNL1       -0.0023
     34 C          66.0583   92.4553   12.0187 C.ar    1  UNL1        0.0012
     35 C          66.1753   92.1730   13.4873 C.ar    1  UNL1        0.0176
     36 C          65.1154   91.3723   14.1839 C.ar    1  UNL1        0.0012
     37 C          63.9384   90.8537   13.4121 C.ar    1  UNL1       -0.0023
     38 C          67.3523   92.6916   14.2592 C.ar    1  UNL1        0.0815
     39 C          67.1385   93.6110   15.4249 C.ar    1  UNL1        0.0215
     40 C          68.3155   94.1296   16.1968 C.ar    1  UNL1        0.0328
     41 C          69.7063   93.7287   15.8029 C.ar    1  UNL1        0.1592
     42 F          70.8833   94.2473   16.5747 F       1  UNL1       -0.2025
     43 C          69.9200   92.8093   14.6372 C.ar    1  UNL1        0.1283
     44 N          68.7430   92.2907   13.8653 N.ar    1  UNL1       -0.2415
@<TRIPOS>UNITY_ATOM_ATTR
29 1
charge -1
@<TRIPOS>BOND
     1    12    13    1
     2    13    14   ar
     3    14    15   ar
     4    15    16   ar
     5    16    11    1
     6    11    10    1
     7    10     1    1
     8     1     2   ar
     9     2     3   ar
    10     3     4   ar
    11     4     5   ar
    12     5     6   ar
    13     5     7   ar
    14     7    19    1
    15    19    20    1
    16    20    21    1
    17    20    22    1
    18    20    23    1
    19     7     8   ar
    20     8    24    1
    21    24    25    1
    22    25    26    1
    23    25    27    1
    24    25    28    1
    25    28    29   ar
    26    28    30   ar
    27     8     9   ar
    28     9    31    1
    29    31    32    1
    30    32    33   ar
    31    33    34   ar
    32    34    35   ar
    33    35    38    1
    34    38    39   ar
    35    39    40   ar
    36    40    41   ar
    37    41    42    1
    38    41    43   ar
    39    43    44   ar
    40    35    36   ar
    41    36    37   ar
    42    16    17   ar
    43    17    18   ar
    44    18    13   ar
    45     6     1   ar
    46    37    32   ar
    47     9     4   ar
    48    44    38   ar
@<TRIPOS>MOLECULE
*****
 44 48 0 0 0
SMALL
GASTEIGER

@<TRIPOS>ATOM
      1 C          63.1034   89.0929   16.7493 C.ar    1  UNL1        0.1392
      2 C          62.2241   88.9534   15.5421 C.ar    1  UNL1        0.0384
      3 C          62.4770   89.7978   14.3285 C.ar    1  UNL1        0.0203
      4 C          63.6091   90.7819   14.3221 C.ar    1  UNL1        0.0606
      5 C          64.4883   90.9214   15.5292 C.ar    1  UNL1        0.0256
      6 C          64.2355   90.0770   16.7429 C.ar    1  UNL1        0.0389
      7 C          65.5205   91.9686   15.2323 C.ar    1  UNL1        0.0383
      8 C          65.2791   92.4762   13.8416 C.ar    1  UNL1        0.0433
      9 N          64.0978   91.7428   13.2790 N.ar    1  UNL1       -0.3260
     10 O          62.8506   88.2484   17.9630 O.3     1  UNL1       -0.4690
     11 C          63.1917   86.7879   17.9447 C.3     1  UNL1        0.2508
     12 C          63.2415   83.7835   12.7512 C.3     1  UNL1        0.0327
     13 C          63.2290   84.5346   14.0496 C.ar    1  UNL1       -0.0027
     14 C          64.3642   85.4516   14.3965 C.ar    1  UNL1       -0.0014
     15 C          64.3518   86.2027   15.6949 C.ar    1  UNL1        0.0181
     16 C          63.2041   86.0368   16.6463 C.ar    1  UNL1        0.1026
     17 N          62.0689   85.1198   16.2994 N.ar    1  UNL1       -0.2448
     18 C          62.0813   84.3687   15.0011 C.ar    1  UNL1        0.0943
     19 S          66.6038   92.4275   16.1628 S.3     1  UNL1       -0.1142
     20 C          68.0205   92.5173   15.6782 C.3     1  UNL1        0.0434
     21 C          68.0455   93.9773   16.0217 C.3     1  UNL1        0.0112
     22 C          67.9955   91.0574   15.3347 C.3     1  UNL1        0.0112
     23 C          69.4372   92.6071   15.1936 C.3     1  UNL1        0.0112
     24 C          66.0787   93.5320   13.1372 C.3     1  UNL1        0.0495
     25 C          66.5457   93.3049   11.7300 C.3     1  UNL1        0.0376
     26 C          65.8664   94.5713   11.3002 C.3     1  UNL1        0.0059
     27 C          67.2251   92.0385   12.1598 C.3     1  UNL1        0.0059
     28 C          67.0127   93.0779   10.3227 C.2     1  UNL1        0.0500
     29 O          66.6475   94.0546    9.2445 O.co2   1  UNL1       -0.5492
     30 O          67.8450   91.8740    9.9937 O.co2   1  UNL1       -0.5492
     31 C          63.5086   91.9363   11.9132 C.3     1  UNL1        0.1324
     32 C          63.0670   90.7478   11.1116 C.ar    1  UNL1        0.0004
     33 C          62.4347   90.9439    9.7657 C.ar    1  UNL1       -0.0023
     34 C          61.9931   89.7555    8.9641 C.ar    1  UNL1        0.0012
     35 C          62.1839   88.3708    9.5086 C.ar    1  UNL1        0.0176
     36 C          62.8162   88.1747   10.8546 C.ar    1  UNL1        0.0012
     37 C          63.2578   89.3632   11.6561 C.ar    1  UNL1       -0.0023
     38 C          61.7423   87.1823    8.7071 C.ar    1  UNL1        0.0815
     39 C          62.7138   86.0813    8.4008 C.ar    1  UNL1        0.0215
     40 C          62.2722   84.8928    7.5993 C.ar    1  UNL1        0.0328
     41 C          60.8591   84.8053    7.1039 C.ar    1  UNL1        0.1592
     42 F          60.4174   83.6169    6.3023 F       1  UNL1       -0.2025
     43 C          59.8876   85.9064    7.4102 C.ar    1  UNL1        0.1283
     44 N          60.3291   87.0949    8.2117 N.ar    1  UNL1       -0.2415
@<TRIPOS>UNITY_ATOM_ATTR
29 1
charge -1
@<TRIPOS>BOND
     1    12    13    1
     2    13    14   ar
     3    14    15   ar
     4    15    16   ar
     5    16    11    1
     6    11    10    1
     7    10     1    1
     8     1     2   ar
     9     2     3   ar
    10     3     4   ar
    11     4     5   ar
    12     5     6   ar
    13     5     7   ar
    14     7    19    1
    15    19    20    1
    16    20    21    1
    17    20    22    1
    18    20    23    1
    19     7     8   ar
    20     8    24    1
    21    24    25    1
    22    25    26    1
    23    25    27    1
    24    25    28    1
    25    28    29   ar
    26    28    30   ar
    27     8     9   ar
    28     9    31    1
    29    31    32    1
    30    32    33   ar
    31    33    34   ar
    32    34    35   ar
    33    35    38    1
    34    38    39   ar
    35    39    40   ar
    36    40    41   ar
    37    41    42    1
    38    41    43   ar
    39    43    44   ar
    40    35    36   ar
    41    36    37   ar
    42    16    17   ar
    43    17    18   ar
    44    18    13   ar
    45     6     1   ar
    46    37    32   ar
    47     9     4   ar
    48    44    38   ar
