@<TRIPOS>MOLECULE
*****
 28 32 0 0 0
SMALL
GASTEIGER

@<TRIPOS>ATOM
      1 N          63.7416   90.4877   12.9102 N.ar    1  UNL1       -0.3085
      2 C          64.4539   89.9462   14.1141 C.ar    1  UNL1        0.1215
      3 N          65.7348   90.7095   14.2771 N.ar    1  UNL1       -0.2309
      4 C          65.8141   91.7229   13.1740 C.ar    1  UNL1        0.0983
      5 C          66.8489   92.7527   12.8296 C.ar    1  UNL1        0.0206
      6 C          66.6518   93.6454   11.6405 C.ar    1  UNL1        0.0016
      7 C          65.4199   93.5083   10.7957 C.ar    1  UNL1        0.0016
      8 C          64.3851   92.4785   11.1401 C.ar    1  UNL1        0.0188
      9 C          64.5822   91.5858   12.3292 C.ar    1  UNL1        0.0789
     10 C          63.9702   88.8361   14.9995 C.3     1  UNL1        0.0729
     11 C          63.4964   89.1384   16.3902 C.3     1  UNL1        0.0103
     12 C          63.0127   88.0284   17.2756 C.3     1  UNL1        0.0178
     13 C          63.0029   86.6161   16.7703 C.3     1  UNL1        0.0721
     14 N          63.4767   86.3139   15.3796 N.3     1  UNL1       -0.2736
     15 C          63.9604   87.4239   14.4942 C.3     1  UNL1        0.0795
     16 C          63.4669   84.9015   14.8743 C.3     1  UNL1        0.0575
     17 C          62.3583   83.9714   15.2691 C.3     1  UNL1        0.0160
     18 C          62.3485   82.5591   14.7638 C.3     1  UNL1        0.0014
     19 C          63.4473   82.0769   13.8636 C.3     1  UNL1        0.0001
     20 C          64.5559   83.0071   13.4688 C.3     1  UNL1        0.0014
     21 C          64.5657   84.4194   13.9742 C.3     1  UNL1        0.0160
     22 C          62.4205   90.0144   12.3804 C.3     1  UNL1        0.1596
     23 C          62.4831   84.9760   10.8020 C.3     1  UNL1        0.0527
     24 C          62.3825   86.4726   10.7930 C.ar    1  UNL1        0.0661
     25 C          62.1196   87.3315    9.5918 C.ar    1  UNL1        0.0513
     26 S          62.1018   88.7628   10.0402 S.2     1  UNL1       -0.0687
     27 C          62.3538   88.7886   11.5186 C.ar    1  UNL1        0.1108
     28 N          62.5273   87.3732   11.9839 N.ar    1  UNL1       -0.2450
@<TRIPOS>BOND
     1    23    24    1
     2    24    25   ar
     3    25    26   ar
     4    26    27   ar
     5    27    22    1
     6    22     1    1
     7     1     2   ar
     8     2    10    1
     9    10    11    1
    10    11    12    1
    11    12    13    1
    12    13    14    1
    13    14    16    1
    14    16    17    1
    15    17    18    1
    16    18    19    1
    17    19    20    1
    18    20    21    1
    19    14    15    1
    20     2     3   ar
    21     3     4   ar
    22     4     5   ar
    23     5     6   ar
    24     6     7   ar
    25     7     8   ar
    26     8     9   ar
    27    27    28   ar
    28    28    24   ar
    29     9     1   ar
    30    15    10    1
    31     9     4   ar
    32    21    16    1
@<TRIPOS>MOLECULE
*****
 28 32 0 0 0
SMALL
GASTEIGER

@<TRIPOS>ATOM
      1 N          64.0710   90.2308   12.7187 N.ar    1  UNL1       -0.3085
      2 C          64.4165   89.9923   14.1587 C.ar    1  UNL1        0.1215
      3 N          65.3096   91.1089   14.6122 N.ar    1  UNL1       -0.2309
      4 C          65.5160   92.0375   13.4524 C.ar    1  UNL1        0.0983
      5 C          66.3021   93.3071   13.3107 C.ar    1  UNL1        0.0206
      6 C          66.3226   94.0341   11.9988 C.ar    1  UNL1        0.0016
      7 C          65.5571   93.4914   10.8286 C.ar    1  UNL1        0.0016
      8 C          64.7710   92.2218   10.9702 C.ar    1  UNL1        0.0188
      9 C          64.7505   91.4948   12.2821 C.ar    1  UNL1        0.0789
     10 C          63.9507   88.8396   14.9980 C.3     1  UNL1        0.0729
     11 C          63.4744   89.0771   16.4003 C.3     1  UNL1        0.0103
     12 C          63.0087   87.9244   17.2396 C.3     1  UNL1        0.0178
     13 C          63.0193   86.5341   16.6764 C.3     1  UNL1        0.0721
     14 N          63.4956   86.2967   15.2741 N.3     1  UNL1       -0.2736
     15 C          63.9613   87.4494   14.4348 C.3     1  UNL1        0.0795
     16 C          63.5062   84.9064   14.7109 C.3     1  UNL1        0.0575
     17 C          62.4472   83.9247   15.1167 C.3     1  UNL1        0.0160
     18 C          62.4577   82.5345   14.5536 C.3     1  UNL1        0.0014
     19 C          63.5274   82.1259   13.5845 C.3     1  UNL1        0.0001
     20 C          64.5864   83.1076   13.1787 C.3     1  UNL1        0.0014
     21 C          64.5758   84.4979   13.7419 C.3     1  UNL1        0.0160
     22 C          63.1990   89.3585   11.8651 C.3     1  UNL1        0.1596
     23 C          58.0106   89.0250   12.7874 C.3     1  UNL1        0.0527
     24 C          59.3358   89.4520   12.2289 C.ar    1  UNL1        0.0661
     25 C          59.5556   90.5176   11.1965 C.ar    1  UNL1        0.0513
     26 S          61.0294   90.6123   10.9345 S.2     1  UNL1       -0.0687
     27 C          61.7207   89.6052   11.8050 C.ar    1  UNL1        0.1108
     28 N          60.6740   88.8880   12.6051 N.ar    1  UNL1       -0.2450
@<TRIPOS>BOND
     1    23    24    1
     2    24    25   ar
     3    25    26   ar
     4    26    27   ar
     5    27    22    1
     6    22     1    1
     7     1     2   ar
     8     2    10    1
     9    10    11    1
    10    11    12    1
    11    12    13    1
    12    13    14    1
    13    14    16    1
    14    16    17    1
    15    17    18    1
    16    18    19    1
    17    19    20    1
    18    20    21    1
    19    14    15    1
    20     2     3   ar
    21     3     4   ar
    22     4     5   ar
    23     5     6   ar
    24     6     7   ar
    25     7     8   ar
    26     8     9   ar
    27    27    28   ar
    28    28    24   ar
    29     9     1   ar
    30    15    10    1
    31     9     4   ar
    32    21    16    1
@<TRIPOS>MOLECULE
*****
 28 32 0 0 0
SMALL
GASTEIGER

@<TRIPOS>ATOM
      1 N          63.7471   90.5197   14.0123 N.ar    1  UNL1       -0.3085
      2 C          63.3113   90.5169   12.5770 C.ar    1  UNL1        0.1215
      3 N          64.2390   91.4114   11.8093 N.ar    1  UNL1       -0.2309
      4 C          65.2480   91.9669   12.7702 C.ar    1  UNL1        0.0983
      5 C          66.4044   92.9034   12.5812 C.ar    1  UNL1        0.0206
      6 C          67.2567   93.2888   13.7537 C.ar    1  UNL1        0.0016
      7 C          66.9527   92.7377   15.1153 C.ar    1  UNL1        0.0016
      8 C          65.7964   91.8012   15.3043 C.ar    1  UNL1        0.0188
      9 C          64.9440   91.4158   14.1317 C.ar    1  UNL1        0.0789
     10 C          62.1516   89.7537   12.0092 C.3     1  UNL1        0.0729
     11 C          60.7636   90.0114   12.5162 C.3     1  UNL1        0.0103
     12 C          59.6039   89.2483   11.9484 C.3     1  UNL1        0.0178
     13 C          59.8320   88.2273   10.8734 C.3     1  UNL1        0.0721
     14 N          61.2200   87.9696   10.3663 N.3     1  UNL1       -0.2736
     15 C          62.3797   88.7328   10.9342 C.3     1  UNL1        0.0795
     16 C          61.4482   86.9486    9.2913 C.3     1  UNL1        0.0575
     17 C          60.3528   86.6261    8.3186 C.3     1  UNL1        0.0160
     18 C          60.5810   85.6052    7.2436 C.3     1  UNL1        0.0014
     19 C          61.9046   84.9067    7.1413 C.3     1  UNL1        0.0001
     20 C          62.9999   85.2293    8.1140 C.3     1  UNL1        0.0014
     21 C          62.7717   86.2503    9.1890 C.3     1  UNL1        0.0160
     22 C          63.0995   89.7597   15.1318 C.3     1  UNL1        0.1596
     23 C          64.9684   84.8714   14.4303 C.3     1  UNL1        0.0527
     24 C          64.3114   86.0735   15.0414 C.ar    1  UNL1        0.0661
     25 C          63.6794   86.1376   16.4002 C.ar    1  UNL1        0.0513
     26 S          63.1485   87.5262   16.5994 S.2     1  UNL1       -0.0687
     27 C          63.4524   88.3204   15.3638 C.ar    1  UNL1        0.1108
     28 N          64.1711   87.4226   14.4008 N.ar    1  UNL1       -0.2450
@<TRIPOS>BOND
     1    23    24    1
     2    24    25   ar
     3    25    26   ar
     4    26    27   ar
     5    27    22    1
     6    22     1    1
     7     1     2   ar
     8     2    10    1
     9    10    11    1
    10    11    12    1
    11    12    13    1
    12    13    14    1
    13    14    16    1
    14    16    17    1
    15    17    18    1
    16    18    19    1
    17    19    20    1
    18    20    21    1
    19    14    15    1
    20     2     3   ar
    21     3     4   ar
    22     4     5   ar
    23     5     6   ar
    24     6     7   ar
    25     7     8   ar
    26     8     9   ar
    27    27    28   ar
    28    28    24   ar
    29     9     1   ar
    30    15    10    1
    31     9     4   ar
    32    21    16    1
@<TRIPOS>MOLECULE
*****
 28 32 0 0 0
SMALL
GASTEIGER

@<TRIPOS>ATOM
      1 N          63.1713   84.3473   13.0108 N.ar    1  UNL1       -0.3085
      2 C          63.0357   84.6050   14.4823 C.ar    1  UNL1        0.1215
      3 N          62.7413   83.2978   15.1565 N.ar    1  UNL1       -0.2309
      4 C          62.6949   82.2323   14.1018 C.ar    1  UNL1        0.0983
      5 C          62.4450   80.7552   14.1775 C.ar    1  UNL1        0.0206
      6 C          62.4609   79.9268   12.9272 C.ar    1  UNL1        0.0016
      7 C          62.7267   80.5754   11.6011 C.ar    1  UNL1        0.0016
      8 C          62.9766   82.0525   11.5253 C.ar    1  UNL1        0.0188
      9 C          62.9607   82.8809   12.7756 C.ar    1  UNL1        0.0789
     10 C          63.1708   85.9361   15.1605 C.3     1  UNL1        0.0729
     11 C          62.8507   86.0703   16.6197 C.3     1  UNL1        0.0103
     12 C          62.9858   87.4014   17.2979 C.3     1  UNL1        0.0178
     13 C          63.4411   88.5983   16.5168 C.3     1  UNL1        0.0721
     14 N          63.7612   88.4641   15.0576 N.3     1  UNL1       -0.2736
     15 C          63.6261   87.1330   14.3794 C.3     1  UNL1        0.0795
     16 C          64.2166   89.6610   14.2764 C.3     1  UNL1        0.0575
     17 C          63.5552   90.0026   12.9741 C.3     1  UNL1        0.0160
     18 C          64.0105   91.1994   12.1930 C.3     1  UNL1        0.0014
     19 C          65.1272   92.0548   12.7141 C.3     1  UNL1        0.0001
     20 C          65.7885   91.7132   14.0164 C.3     1  UNL1        0.0014
     21 C          65.3332   90.5163   14.7976 C.3     1  UNL1        0.0160
     22 C          63.4658   85.3755   11.9592 C.3     1  UNL1        0.1596
     23 C          60.4004   85.9872    7.7036 C.3     1  UNL1        0.0527
     24 C          60.9662   86.1253    9.0860 C.ar    1  UNL1        0.0661
     25 C          60.4280   87.0048   10.1753 C.ar    1  UNL1        0.0513
     26 S          61.2989   86.8310   11.3842 S.2     1  UNL1       -0.0687
     27 C          62.3753   85.8441   11.0421 C.ar    1  UNL1        0.1108
     28 N          62.1698   85.4078    9.6217 N.ar    1  UNL1       -0.2450
@<TRIPOS>BOND
     1    23    24    1
     2    24    25   ar
     3    25    26   ar
     4    26    27   ar
     5    27    22    1
     6    22     1    1
     7     1     2   ar
     8     2    10    1
     9    10    11    1
    10    11    12    1
    11    12    13    1
    12    13    14    1
    13    14    16    1
    14    16    17    1
    15    17    18    1
    16    18    19    1
    17    19    20    1
    18    20    21    1
    19    14    15    1
    20     2     3   ar
    21     3     4   ar
    22     4     5   ar
    23     5     6   ar
    24     6     7   ar
    25     7     8   ar
    26     8     9   ar
    27    27    28   ar
    28    28    24   ar
    29     9     1   ar
    30    15    10    1
    31     9     4   ar
    32    21    16    1
@<TRIPOS>MOLECULE
*****
 28 32 0 0 0
SMALL
GASTEIGER

@<TRIPOS>ATOM
      1 N          63.0557   84.7265   11.3204 N.ar    1  UNL1       -0.3085
      2 C          62.8293   85.8041   12.3390 C.ar    1  UNL1        0.1215
      3 N          62.5072   85.1449   13.6473 N.ar    1  UNL1       -0.2309
      4 C          62.5346   83.6599   13.4374 C.ar    1  UNL1        0.0983
      5 C          62.2947   82.5098   14.3699 C.ar    1  UNL1        0.0206
      6 C          62.3937   81.1011   13.8642 C.ar    1  UNL1        0.0016
      7 C          62.7327   80.8425   12.4261 C.ar    1  UNL1        0.0016
      8 C          62.9726   81.9926   11.4936 C.ar    1  UNL1        0.0188
      9 C          62.8736   83.4013   11.9992 C.ar    1  UNL1        0.0789
     10 C          62.9106   87.2815   12.0925 C.3     1  UNL1        0.0729
     11 C          62.3219   87.8670   10.8433 C.3     1  UNL1        0.0103
     12 C          62.4033   89.3444   10.5968 C.3     1  UNL1        0.0178
     13 C          63.0733   90.2362   11.5996 C.3     1  UNL1        0.0721
     14 N          63.6620   89.6507   12.8488 N.3     1  UNL1       -0.2736
     15 C          63.5806   88.1734   13.0953 C.3     1  UNL1        0.0795
     16 C          64.3321   90.5426   13.8516 C.3     1  UNL1        0.0575
     17 C          63.7828   90.6521   15.2432 C.3     1  UNL1        0.0160
     18 C          64.4528   91.5439   16.2460 C.3     1  UNL1        0.0014
     19 C          65.6721   92.3264   15.8573 C.3     1  UNL1        0.0001
     20 C          66.2214   92.2170   14.4658 C.3     1  UNL1        0.0014
     21 C          65.5513   91.3251   13.4629 C.3     1  UNL1        0.0160
     22 C          63.4032   84.9371    9.8765 C.3     1  UNL1        0.1596
     23 C          58.9161   86.7045    7.7263 C.3     1  UNL1        0.0527
     24 C          60.2612   86.0622    7.8947 C.ar    1  UNL1        0.0661
     25 C          61.0637   85.4001    6.8143 C.ar    1  UNL1        0.0513
     26 S          62.3383   84.8980    7.4251 S.2     1  UNL1       -0.0687
     27 C          62.3237   85.2498    8.8831 C.ar    1  UNL1        0.1108
     28 N          61.0400   85.9694    9.1735 N.ar    1  UNL1       -0.2450
@<TRIPOS>BOND
     1    23    24    1
     2    24    25   ar
     3    25    26   ar
     4    26    27   ar
     5    27    22    1
     6    22     1    1
     7     1     2   ar
     8     2    10    1
     9    10    11    1
    10    11    12    1
    11    12    13    1
    12    13    14    1
    13    14    16    1
    14    16    17    1
    15    17    18    1
    16    18    19    1
    17    19    20    1
    18    20    21    1
    19    14    15    1
    20     2     3   ar
    21     3     4   ar
    22     4     5   ar
    23     5     6   ar
    24     6     7   ar
    25     7     8   ar
    26     8     9   ar
    27    27    28   ar
    28    28    24   ar
    29     9     1   ar
    30    15    10    1
    31     9     4   ar
    32    21    16    1
@<TRIPOS>MOLECULE
*****
 28 32 0 0 0
SMALL
GASTEIGER

@<TRIPOS>ATOM
      1 N          61.9679   88.3092   10.7440 N.ar    1  UNL1       -0.3085
      2 C          62.3146   89.7555   10.5489 C.ar    1  UNL1        0.1215
      3 N          61.5000   90.2768    9.4024 N.ar    1  UNL1       -0.2309
      4 C          60.6498   89.1528    8.8888 C.ar    1  UNL1        0.0983
      5 C          59.6497   89.0795    7.7733 C.ar    1  UNL1        0.0206
      6 C          58.9388   87.7901    7.4870 C.ar    1  UNL1        0.0016
      7 C          59.2280   86.5740    8.3162 C.ar    1  UNL1        0.0016
      8 C          60.2280   86.6473    9.4317 C.ar    1  UNL1        0.0188
      9 C          60.9390   87.9367    9.7180 C.ar    1  UNL1        0.0789
     10 C          63.3025   90.5423   11.3583 C.3     1  UNL1        0.0729
     11 C          63.4312   90.2945   12.8320 C.3     1  UNL1        0.0103
     12 C          64.4191   91.0813   13.6414 C.3     1  UNL1        0.0178
     13 C          65.2783   92.1158   12.9770 C.3     1  UNL1        0.0721
     14 N          65.1496   92.3636   11.5033 N.3     1  UNL1       -0.2736
     15 C          64.1617   91.5768   10.6939 C.3     1  UNL1        0.0795
     16 C          66.0088   93.3982   10.8388 C.3     1  UNL1        0.0575
     17 C          65.7949   94.8531   11.1345 C.3     1  UNL1        0.0160
     18 C          66.6541   95.8877   10.4701 C.3     1  UNL1        0.0014
     19 C          67.7272   95.4673    9.5099 C.3     1  UNL1        0.0001
     20 C          67.9410   94.0124    9.2142 C.3     1  UNL1        0.0014
     21 C          67.0818   92.9778    9.8787 C.3     1  UNL1        0.0160
     22 C          62.5481   87.3958   11.7827 C.3     1  UNL1        0.1596
     23 C          62.5615   82.1503   12.3873 C.3     1  UNL1        0.0527
     24 C          62.6836   83.5168   11.7806 C.ar    1  UNL1        0.0661
     25 C          63.0693   83.8210   10.3634 C.ar    1  UNL1        0.0513
     26 S          63.0655   85.3111   10.1917 S.2     1  UNL1       -0.0687
     27 C          62.6774   85.9279   11.5028 C.ar    1  UNL1        0.1108
     28 N          62.4414   84.8189   12.4848 N.ar    1  UNL1       -0.2450
@<TRIPOS>BOND
     1    23    24    1
     2    24    25   ar
     3    25    26   ar
     4    26    27   ar
     5    27    22    1
     6    22     1    1
     7     1     2   ar
     8     2    10    1
     9    10    11    1
    10    11    12    1
    11    12    13    1
    12    13    14    1
    13    14    16    1
    14    16    17    1
    15    17    18    1
    16    18    19    1
    17    19    20    1
    18    20    21    1
    19    14    15    1
    20     2     3   ar
    21     3     4   ar
    22     4     5   ar
    23     5     6   ar
    24     6     7   ar
    25     7     8   ar
    26     8     9   ar
    27    27    28   ar
    28    28    24   ar
    29     9     1   ar
    30    15    10    1
    31     9     4   ar
    32    21    16    1
@<TRIPOS>MOLECULE
*****
 28 32 0 0 0
SMALL
GASTEIGER

@<TRIPOS>ATOM
      1 N          61.3567   87.3538   10.8131 N.ar    1  UNL1       -0.3085
      2 C          62.1249   88.6027   11.1290 C.ar    1  UNL1        0.1215
      3 N          61.7986   89.6251   10.0810 N.ar    1  UNL1       -0.2309
      4 C          60.8286   89.0080    9.1175 C.ar    1  UNL1        0.0983
      5 C          60.1588   89.5429    7.8866 C.ar    1  UNL1        0.0206
      6 C          59.2159   88.6741    7.1082 C.ar    1  UNL1        0.0016
      7 C          58.9427   87.2703    7.5607 C.ar    1  UNL1        0.0016
      8 C          59.6126   86.7353    8.7916 C.ar    1  UNL1        0.0188
      9 C          60.5555   87.6042    9.5700 C.ar    1  UNL1        0.0789
     10 C          63.0561   88.7955   12.2891 C.3     1  UNL1        0.0729
     11 C          63.2618   87.6866   13.2779 C.3     1  UNL1        0.0103
     12 C          64.1930   87.8794   14.4380 C.3     1  UNL1        0.0178
     13 C          64.9183   89.1811   14.6092 C.3     1  UNL1        0.0721
     14 N          64.7126   90.2900   13.6204 N.3     1  UNL1       -0.2736
     15 C          63.7814   90.0972   12.4603 C.3     1  UNL1        0.0795
     16 C          65.4380   91.5918   13.7916 C.3     1  UNL1        0.0575
     17 C          65.4943   92.5736   12.6589 C.3     1  UNL1        0.0160
     18 C          66.2196   93.8753   12.8300 C.3     1  UNL1        0.0014
     19 C          66.8887   94.1953   14.1339 C.3     1  UNL1        0.0001
     20 C          66.8324   93.2136   15.2666 C.3     1  UNL1        0.0014
     21 C          66.1070   91.9118   15.0954 C.3     1  UNL1        0.0160
     22 C          61.3846   86.0782   11.6019 C.3     1  UNL1        0.1596
     23 C          64.5927   81.8973   11.9319 C.3     1  UNL1        0.0527
     24 C          63.8326   83.0734   11.3939 C.ar    1  UNL1        0.0661
     25 C          63.8792   83.5833    9.9841 C.ar    1  UNL1        0.0513
     26 S          62.9678   84.7710    9.8904 S.2     1  UNL1       -0.0687
     27 C          62.3580   84.9951   11.2423 C.ar    1  UNL1        0.1108
     28 N          62.8924   83.9460   12.1717 N.ar    1  UNL1       -0.2450
@<TRIPOS>BOND
     1    23    24    1
     2    24    25   ar
     3    25    26   ar
     4    26    27   ar
     5    27    22    1
     6    22     1    1
     7     1     2   ar
     8     2    10    1
     9    10    11    1
    10    11    12    1
    11    12    13    1
    12    13    14    1
    13    14    16    1
    14    16    17    1
    15    17    18    1
    16    18    19    1
    17    19    20    1
    18    20    21    1
    19    14    15    1
    20     2     3   ar
    21     3     4   ar
    22     4     5   ar
    23     5     6   ar
    24     6     7   ar
    25     7     8   ar
    26     8     9   ar
    27    27    28   ar
    28    28    24   ar
    29     9     1   ar
    30    15    10    1
    31     9     4   ar
    32    21    16    1
@<TRIPOS>MOLECULE
*****
 28 32 0 0 0
SMALL
GASTEIGER

@<TRIPOS>ATOM
      1 N          63.4596   83.6579   12.0125 N.ar    1  UNL1       -0.3085
      2 C          63.3162   84.2512   13.3827 C.ar    1  UNL1        0.1215
      3 N          62.8625   83.1653   14.3128 N.ar    1  UNL1       -0.2309
      4 C          62.7255   81.9009   13.5174 C.ar    1  UNL1        0.0983
      5 C          62.3124   80.5118   13.9040 C.ar    1  UNL1        0.0206
      6 C          62.2683   79.4271   12.8689 C.ar    1  UNL1        0.0016
      7 C          62.6373   79.7315   11.4472 C.ar    1  UNL1        0.0016
      8 C          63.0504   81.1207   11.0607 C.ar    1  UNL1        0.0188
      9 C          63.0945   82.2054   12.0957 C.ar    1  UNL1        0.0789
     10 C          63.5802   85.6795   13.7571 C.3     1  UNL1        0.0729
     11 C          64.0722   86.0154   15.1337 C.3     1  UNL1        0.0103
     12 C          64.3362   87.4437   15.5082 C.3     1  UNL1        0.0178
     13 C          64.1082   88.5362   14.5060 C.3     1  UNL1        0.0721
     14 N          63.6162   88.2003   13.1294 N.3     1  UNL1       -0.2736
     15 C          63.3522   86.7720   12.7549 C.3     1  UNL1        0.0795
     16 C          63.3881   89.2928   12.1271 C.3     1  UNL1        0.0575
     17 C          62.4996   89.0508   10.9430 C.3     1  UNL1        0.0160
     18 C          62.2715   90.1433    9.9408 C.3     1  UNL1        0.0014
     19 C          62.9320   91.4778   10.1225 C.3     1  UNL1        0.0001
     20 C          63.8205   91.7198   11.3066 C.3     1  UNL1        0.0014
     21 C          64.0486   90.6272   12.3089 C.3     1  UNL1        0.0160
     22 C          63.8921   84.3888   10.7761 C.3     1  UNL1        0.1596
     23 C          59.5760   86.9048    9.0669 C.3     1  UNL1        0.0527
     24 C          60.8830   86.1691    9.0905 C.ar    1  UNL1        0.0661
     25 C          61.6954   85.7760    7.8925 C.ar    1  UNL1        0.0513
     26 S          62.9215   85.0613    8.3781 S.2     1  UNL1       -0.0687
     27 C          62.8670   85.0126    9.8763 C.ar    1  UNL1        0.1108
     28 N          61.6071   85.6973   10.3167 N.ar    1  UNL1       -0.2450
@<TRIPOS>BOND
     1    23    24    1
     2    24    25   ar
     3    25    26   ar
     4    26    27   ar
     5    27    22    1
     6    22     1    1
     7     1     2   ar
     8     2    10    1
     9    10    11    1
    10    11    12    1
    11    12    13    1
    12    13    14    1
    13    14    16    1
    14    16    17    1
    15    17    18    1
    16    18    19    1
    17    19    20    1
    18    20    21    1
    19    14    15    1
    20     2     3   ar
    21     3     4   ar
    22     4     5   ar
    23     5     6   ar
    24     6     7   ar
    25     7     8   ar
    26     8     9   ar
    27    27    28   ar
    28    28    24   ar
    29     9     1   ar
    30    15    10    1
    31     9     4   ar
    32    21    16    1
@<TRIPOS>MOLECULE
*****
 28 32 0 0 0
SMALL
GASTEIGER

@<TRIPOS>ATOM
      1 N          63.6246   88.5921   12.7017 N.ar    1  UNL1       -0.3085
      2 C          63.7421   89.9489   12.0730 C.ar    1  UNL1        0.1215
      3 N          62.9006   89.9588   10.8313 N.ar    1  UNL1       -0.2309
      4 C          62.2630   88.6082   10.6927 C.ar    1  UNL1        0.0983
      5 C          61.3327   88.0383    9.6632 C.ar    1  UNL1        0.0206
      6 C          60.8500   86.6238    9.7897 C.ar    1  UNL1        0.0016
      7 C          61.2974   85.7792   10.9457 C.ar    1  UNL1        0.0016
      8 C          62.2276   86.3490   11.9752 C.ar    1  UNL1        0.0188
      9 C          62.7104   87.7635   11.8487 C.ar    1  UNL1        0.0789
     10 C          64.5579   91.0946   12.5944 C.3     1  UNL1        0.0729
     11 C          64.8731   91.1860   14.0580 C.3     1  UNL1        0.0103
     12 C          65.6890   92.3317   14.5793 C.3     1  UNL1        0.0178
     13 C          66.1896   93.3860   13.6371 C.3     1  UNL1        0.0721
     14 N          65.8744   93.2946   12.1735 N.3     1  UNL1       -0.2736
     15 C          65.0585   92.1489   11.6521 C.3     1  UNL1        0.0795
     16 C          66.3750   94.3488   11.2311 C.3     1  UNL1        0.0575
     17 C          66.1699   95.7998   11.5516 C.3     1  UNL1        0.0160
     18 C          66.6704   96.8540   10.6094 C.3     1  UNL1        0.0014
     19 C          67.3761   96.4574    9.3465 C.3     1  UNL1        0.0001
     20 C          67.5812   95.0065    9.0260 C.3     1  UNL1        0.0014
     21 C          67.0806   93.9522    9.9683 C.3     1  UNL1        0.0160
     22 C          64.3022   88.1428   13.9623 C.3     1  UNL1        0.1596
     23 C          63.8807   82.8963   14.3828 C.3     1  UNL1        0.0527
     24 C          63.8404   84.3610   14.7039 C.ar    1  UNL1        0.0661
     25 C          63.4029   84.9670   16.0043 C.ar    1  UNL1        0.0513
     26 S          63.5227   86.4574   15.8849 S.2     1  UNL1       -0.0687
     27 C          64.0341   86.7726   14.5105 C.ar    1  UNL1        0.1108
     28 N          64.2305   85.4770   13.7805 N.ar    1  UNL1       -0.2450
@<TRIPOS>BOND
     1    23    24    1
     2    24    25   ar
     3    25    26   ar
     4    26    27   ar
     5    27    22    1
     6    22     1    1
     7     1     2   ar
     8     2    10    1
     9    10    11    1
    10    11    12    1
    11    12    13    1
    12    13    14    1
    13    14    16    1
    14    16    17    1
    15    17    18    1
    16    18    19    1
    17    19    20    1
    18    20    21    1
    19    14    15    1
    20     2     3   ar
    21     3     4   ar
    22     4     5   ar
    23     5     6   ar
    24     6     7   ar
    25     7     8   ar
    26     8     9   ar
    27    27    28   ar
    28    28    24   ar
    29     9     1   ar
    30    15    10    1
    31     9     4   ar
    32    21    16    1
