@<TRIPOS>MOLECULE
*****
 29 33 0 0 0
SMALL
GASTEIGER

@<TRIPOS>ATOM
      1 O          62.6459   82.8007   12.1937 O.2     1  UNL1       -0.2911
      2 C          62.6648   84.2964   12.0808 C.2     1  UNL1        0.1795
      3 C          61.9774   84.9704   10.9306 C.3     1  UNL1        0.1092
      4 C          61.9964   86.4661   10.8176 C.3     1  UNL1        0.1436
      5 C          62.0154   87.9617   10.7047 C.3     1  UNL1        0.0620
      6 C          61.3279   88.6357    9.5545 C.3     1  UNL1        0.0985
      7 N          60.6214   87.8142    8.5172 N.am    1  UNL1       -0.2640
      8 C          59.9339   88.4883    7.3670 C.2     1  UNL1        0.3042
      9 O          59.2275   87.6668    6.3297 O.2     1  UNL1       -0.2526
     10 N          59.9530   89.9839    7.2541 N.am    1  UNL1       -0.2866
     11 C          60.6024   86.3186    8.6301 C.3     1  UNL1        0.0985
     12 C          61.2899   85.6446    9.7803 C.3     1  UNL1        0.0620
     13 O          62.7028   87.2876   11.8549 O.3     1  UNL1       -0.4819
     14 C          63.3903   86.6135   13.0052 C.ar    1  UNL1        0.1409
     15 C          64.0968   87.4350   14.0424 C.ar    1  UNL1        0.0370
     16 C          64.7843   86.7610   15.1926 C.ar    1  UNL1        0.0031
     17 C          64.7653   85.2653   15.3056 C.ar    1  UNL1        0.0003
     18 C          64.0588   84.4438   14.2683 C.ar    1  UNL1        0.0059
     19 C          63.3713   85.1179   13.1181 C.ar    1  UNL1        0.0687
     20 H          60.4166   90.5231    7.9349 H       1  UNL1        0.1512
     21 C          59.2655   90.6581    6.1039 C.3     1  UNL1        0.0956
     22 C          57.7835   90.8109    5.9295 C.3     1  UNL1        0.0288
     23 C          57.5413   91.5450    4.6439 C.3     1  UNL1        0.0281
     24 C          58.8737   91.8458    4.0239 C.ar    1  UNL1       -0.0245
     25 C          59.2543   92.5480    2.7542 C.ar    1  UNL1       -0.0045
     26 C          60.7003   92.7021    2.3869 C.ar    1  UNL1       -0.0003
     27 C          61.7660   92.1539    3.2892 C.ar    1  UNL1       -0.0003
     28 C          61.3854   91.4517    4.5588 C.ar    1  UNL1       -0.0030
     29 C          59.9392   91.2976    4.9262 C.ar    1  UNL1       -0.0084
@<TRIPOS>BOND
     1     1     2    2
     2     2     3    1
     3     3     4    1
     4     4     5    1
     5     5     6    1
     6     6     7    1
     7     7     8   am
     8     8     9    2
     9     8    10   am
    10    10    21    1
    11    21    22    1
    12    22    23    1
    13    23    24    1
    14    24    25   ar
    15    25    26   ar
    16    26    27   ar
    17    27    28   ar
    18    28    29   ar
    19     7    11    1
    20    11    12    1
    21     4    13    1
    22    13    14    1
    23    14    15   ar
    24    15    16   ar
    25    16    17   ar
    26    17    18   ar
    27    18    19   ar
    28    19     2    1
    29    12     4    1
    30    19    14   ar
    31    29    21    1
    32    29    24   ar
    33    10    20    1
@<TRIPOS>MOLECULE
*****
 29 33 0 0 0
SMALL
GASTEIGER

@<TRIPOS>ATOM
      1 O          63.9855   85.8020   14.6557 O.2     1  UNL1       -0.2911
      2 C          63.3771   85.4028   13.3439 C.2     1  UNL1        0.1795
      3 C          62.7700   86.4440   12.4510 C.3     1  UNL1        0.1092
      4 C          62.1616   86.0448   11.1392 C.3     1  UNL1        0.1436
      5 C          61.5533   85.6457    9.8276 C.3     1  UNL1        0.0620
      6 C          60.9462   86.6868    8.9346 C.3     1  UNL1        0.0985
      7 N          60.9475   88.1272    9.3534 N.am    1  UNL1       -0.2640
      8 C          60.3404   89.1684    8.4604 C.2     1  UNL1        0.3042
      9 O          60.3417   90.6088    8.8791 O.2     1  UNL1       -0.2526
     10 N          59.7320   88.7692    7.1487 N.am    1  UNL1       -0.2866
     11 C          61.5558   88.5264   10.6651 C.3     1  UNL1        0.0985
     12 C          62.1629   87.4852   11.5580 C.3     1  UNL1        0.0620
     13 O          62.1603   84.6045   10.7205 O.3     1  UNL1       -0.4819
     14 C          62.7674   83.5633   11.6135 C.ar    1  UNL1        0.1409
     15 C          62.7662   82.1229   11.1947 C.ar    1  UNL1        0.0370
     16 C          63.3732   81.0817   12.0877 C.ar    1  UNL1        0.0031
     17 C          63.9816   81.4809   13.3994 C.ar    1  UNL1        0.0003
     18 C          63.9829   82.9212   13.8182 C.ar    1  UNL1        0.0059
     19 C          63.3758   83.9624   12.9252 C.ar    1  UNL1        0.0687
     20 H          59.7312   87.8239    6.8739 H       1  UNL1        0.1512
     21 C          59.1249   89.8104    6.2557 C.3     1  UNL1        0.0956
     22 C          57.6737   90.1858    6.1991 C.3     1  UNL1        0.0288
     23 C          57.5143   91.2665    5.1710 C.3     1  UNL1        0.0281
     24 C          58.8670   91.5588    4.5922 C.ar    1  UNL1       -0.0245
     25 C          59.3209   92.5281    3.5413 C.ar    1  UNL1       -0.0045
     26 C          60.7701   92.5976    3.1609 C.ar    1  UNL1       -0.0003
     27 C          61.7656   91.6977    3.8313 C.ar    1  UNL1       -0.0003
     28 C          61.3116   90.7284    4.8822 C.ar    1  UNL1       -0.0030
     29 C          59.8623   90.6589    5.2626 C.ar    1  UNL1       -0.0084
@<TRIPOS>BOND
     1     1     2    2
     2     2     3    1
     3     3     4    1
     4     4     5    1
     5     5     6    1
     6     6     7    1
     7     7     8   am
     8     8     9    2
     9     8    10   am
    10    10    21    1
    11    21    22    1
    12    22    23    1
    13    23    24    1
    14    24    25   ar
    15    25    26   ar
    16    26    27   ar
    17    27    28   ar
    18    28    29   ar
    19     7    11    1
    20    11    12    1
    21     4    13    1
    22    13    14    1
    23    14    15   ar
    24    15    16   ar
    25    16    17   ar
    26    17    18   ar
    27    18    19   ar
    28    19     2    1
    29    12     4    1
    30    19    14   ar
    31    29    21    1
    32    29    24   ar
    33    10    20    1
@<TRIPOS>MOLECULE
*****
 29 33 0 0 0
SMALL
GASTEIGER

@<TRIPOS>ATOM
      1 O          67.1429   94.2088   15.0682 O.2     1  UNL1       -0.2911
      2 C          66.3864   93.4021   14.0548 C.2     1  UNL1        0.1795
      3 C          65.9674   91.9979   14.3752 C.3     1  UNL1        0.1092
      4 C          65.2110   91.1912   13.3618 C.3     1  UNL1        0.1436
      5 C          64.4545   90.3845   12.3484 C.3     1  UNL1        0.0620
      6 C          64.0356   88.9803   12.6688 C.3     1  UNL1        0.0985
      7 N          64.3730   88.3828   14.0026 N.am    1  UNL1       -0.2640
      8 C          63.9540   86.9786   14.3230 C.2     1  UNL1        0.3042
      9 O          64.2914   86.3811   15.6569 O.2     1  UNL1       -0.2526
     10 N          63.1976   86.1719   13.3096 N.am    1  UNL1       -0.2866
     11 C          65.1294   89.1895   15.0161 C.3     1  UNL1        0.0985
     12 C          65.5484   90.5937   14.6956 C.3     1  UNL1        0.0620
     13 O          64.8735   91.7887   12.0279 O.3     1  UNL1       -0.4819
     14 C          65.2926   93.1929   11.7075 C.ar    1  UNL1        0.1409
     15 C          64.9551   93.7904   10.3737 C.ar    1  UNL1        0.0370
     16 C          65.3741   95.1946   10.0533 C.ar    1  UNL1        0.0031
     17 C          66.1306   96.0013   11.0667 C.ar    1  UNL1        0.0003
     18 C          66.4680   95.4038   12.4006 C.ar    1  UNL1        0.0059
     19 C          66.0490   93.9996   12.7210 C.ar    1  UNL1        0.0687
     20 H          62.9761   86.5641   12.4342 H       1  UNL1        0.1512
     21 C          62.7785   84.7677   13.6300 C.3     1  UNL1        0.0956
     22 C          62.1205   84.3117   14.8985 C.3     1  UNL1        0.0288
     23 C          61.8792   82.8351   14.7907 C.3     1  UNL1        0.0281
     24 C          62.3882   82.3786   13.4555 C.ar    1  UNL1       -0.0245
     25 C          62.4174   81.0296   12.8003 C.ar    1  UNL1       -0.0045
     26 C          63.0023   80.8750   11.4278 C.ar    1  UNL1       -0.0003
     27 C          63.5581   82.0694   10.7104 C.ar    1  UNL1       -0.0003
     28 C          63.5289   83.4184   11.3657 C.ar    1  UNL1       -0.0030
     29 C          62.9440   83.5730   12.7382 C.ar    1  UNL1       -0.0084
@<TRIPOS>BOND
     1     1     2    2
     2     2     3    1
     3     3     4    1
     4     4     5    1
     5     5     6    1
     6     6     7    1
     7     7     8   am
     8     8     9    2
     9     8    10   am
    10    10    21    1
    11    21    22    1
    12    22    23    1
    13    23    24    1
    14    24    25   ar
    15    25    26   ar
    16    26    27   ar
    17    27    28   ar
    18    28    29   ar
    19     7    11    1
    20    11    12    1
    21     4    13    1
    22    13    14    1
    23    14    15   ar
    24    15    16   ar
    25    16    17   ar
    26    17    18   ar
    27    18    19   ar
    28    19     2    1
    29    12     4    1
    30    19    14   ar
    31    29    21    1
    32    29    24   ar
    33    10    20    1
@<TRIPOS>MOLECULE
*****
 29 33 0 0 0
SMALL
GASTEIGER

@<TRIPOS>ATOM
      1 O          61.8391   80.0865   14.8857 O.2     1  UNL1       -0.2911
      2 C          62.3843   81.1932   14.0325 C.2     1  UNL1        0.1795
      3 C          62.6081   82.5541   14.6221 C.3     1  UNL1        0.1092
      4 C          63.1533   83.6608   13.7688 C.3     1  UNL1        0.1436
      5 C          63.6985   84.7675   12.9156 C.3     1  UNL1        0.0620
      6 C          63.9222   86.1284   13.5052 C.3     1  UNL1        0.0985
      7 N          63.6008   86.3827   14.9482 N.am    1  UNL1       -0.2640
      8 C          63.8246   87.7437   15.5378 C.2     1  UNL1        0.3042
      9 O          63.5032   87.9980   16.9807 O.2     1  UNL1       -0.2526
     10 N          64.3698   88.8504   14.6845 N.am    1  UNL1       -0.2866
     11 C          63.0557   85.2761   15.8014 C.3     1  UNL1        0.0985
     12 C          62.8319   83.9151   15.2118 C.3     1  UNL1        0.0620
     13 O          63.4747   83.4065   12.3259 O.3     1  UNL1       -0.4819
     14 C          63.2509   82.0455   11.7363 C.ar    1  UNL1        0.1409
     15 C          63.5723   81.7912   10.2933 C.ar    1  UNL1        0.0370
     16 C          63.3485   80.4303    9.7037 C.ar    1  UNL1        0.0031
     17 C          62.8033   79.3236   10.5570 C.ar    1  UNL1        0.0003
     18 C          62.4819   79.5779   11.9999 C.ar    1  UNL1        0.0059
     19 C          62.7057   80.9389   12.5895 C.ar    1  UNL1        0.0687
     20 H          64.5807   88.6834   13.7375 H       1  UNL1        0.1512
     21 C          64.5936   90.2114   15.2742 C.3     1  UNL1        0.0956
     22 C          63.6624   90.9343   16.2018 C.3     1  UNL1        0.0288
     23 C          64.2812   92.2581   16.5407 C.3     1  UNL1        0.0281
     24 C          65.5947   92.3533   15.8225 C.ar    1  UNL1       -0.0245
     25 C          66.6399   93.4283   15.7801 C.ar    1  UNL1       -0.0045
     26 C          67.8781   93.2385   14.9552 C.ar    1  UNL1       -0.0003
     27 C          68.0712   91.9735   14.1724 C.ar    1  UNL1       -0.0003
     28 C          67.0260   90.8984   14.2148 C.ar    1  UNL1       -0.0030
     29 C          65.7877   91.0883   15.0398 C.ar    1  UNL1       -0.0084
@<TRIPOS>BOND
     1     1     2    2
     2     2     3    1
     3     3     4    1
     4     4     5    1
     5     5     6    1
     6     6     7    1
     7     7     8   am
     8     8     9    2
     9     8    10   am
    10    10    21    1
    11    21    22    1
    12    22    23    1
    13    23    24    1
    14    24    25   ar
    15    25    26   ar
    16    26    27   ar
    17    27    28   ar
    18    28    29   ar
    19     7    11    1
    20    11    12    1
    21     4    13    1
    22    13    14    1
    23    14    15   ar
    24    15    16   ar
    25    16    17   ar
    26    17    18   ar
    27    18    19   ar
    28    19     2    1
    29    12     4    1
    30    19    14   ar
    31    29    21    1
    32    29    24   ar
    33    10    20    1
@<TRIPOS>MOLECULE
*****
 29 33 0 0 0
SMALL
GASTEIGER

@<TRIPOS>ATOM
      1 O          59.4320   95.5728   -0.6040 O.2     1  UNL1       -0.2911
      2 C          60.4203   94.7852    0.2041 C.2     1  UNL1        0.1795
      3 C          59.9485   93.9414    1.3510 C.3     1  UNL1        0.1092
      4 C          60.9368   93.1538    2.1590 C.3     1  UNL1        0.1436
      5 C          61.9251   92.3662    2.9670 C.3     1  UNL1        0.0620
      6 C          61.4533   91.5224    4.1139 C.3     1  UNL1        0.0985
      7 N          59.9931   91.4662    4.4528 N.am    1  UNL1       -0.2640
      8 C          59.5213   90.6224    5.5998 C.2     1  UNL1        0.3042
      9 O          58.0612   90.5662    5.9387 O.2     1  UNL1       -0.2526
     10 N          60.5096   89.8348    6.4078 N.am    1  UNL1       -0.2866
     11 C          59.0048   92.2538    3.6448 C.3     1  UNL1        0.0985
     12 C          59.4767   93.0976    2.4979 C.3     1  UNL1        0.0620
     13 O          62.3969   93.2099    1.8202 O.3     1  UNL1       -0.4819
     14 C          62.8688   94.0538    0.6732 C.ar    1  UNL1        0.1409
     15 C          64.3289   94.1099    0.3343 C.ar    1  UNL1        0.0370
     16 C          64.8007   94.9537   -0.8126 C.ar    1  UNL1        0.0031
     17 C          63.8124   95.7413   -1.6206 C.ar    1  UNL1        0.0003
     18 C          62.3523   95.6852   -1.2818 C.ar    1  UNL1        0.0059
     19 C          61.8804   94.8413   -0.1348 C.ar    1  UNL1        0.0687
     20 H          61.4680   89.8717    6.1853 H       1  UNL1        0.1512
     21 C          60.0378   88.9910    7.5547 C.3     1  UNL1        0.0956
     22 C          59.2141   87.7418    7.4498 C.3     1  UNL1        0.0288
     23 C          58.9741   87.2269    8.8382 C.3     1  UNL1        0.0281
     24 C          59.6495   88.1580    9.8010 C.ar    1  UNL1       -0.0245
     25 C          59.7508   88.1540   11.2976 C.ar    1  UNL1       -0.0045
     26 C          60.5094   89.2401   12.0009 C.ar    1  UNL1       -0.0003
     27 C          61.1669   90.3303   11.2077 C.ar    1  UNL1       -0.0003
     28 C          61.0656   90.3344    9.7111 C.ar    1  UNL1       -0.0030
     29 C          60.3069   89.2482    9.0078 C.ar    1  UNL1       -0.0084
@<TRIPOS>BOND
     1     1     2    2
     2     2     3    1
     3     3     4    1
     4     4     5    1
     5     5     6    1
     6     6     7    1
     7     7     8   am
     8     8     9    2
     9     8    10   am
    10    10    21    1
    11    21    22    1
    12    22    23    1
    13    23    24    1
    14    24    25   ar
    15    25    26   ar
    16    26    27   ar
    17    27    28   ar
    18    28    29   ar
    19     7    11    1
    20    11    12    1
    21     4    13    1
    22    13    14    1
    23    14    15   ar
    24    15    16   ar
    25    16    17   ar
    26    17    18   ar
    27    18    19   ar
    28    19     2    1
    29    12     4    1
    30    19    14   ar
    31    29    21    1
    32    29    24   ar
    33    10    20    1
@<TRIPOS>MOLECULE
*****
 29 33 0 0 0
SMALL
GASTEIGER

@<TRIPOS>ATOM
      1 O          64.6374   93.4245   11.5478 O.2     1  UNL1       -0.2911
      2 C          64.9723   92.3654   12.5560 C.2     1  UNL1        0.1795
      3 C          64.3806   90.9931   12.4268 C.3     1  UNL1        0.1092
      4 C          64.7155   89.9341   13.4350 C.3     1  UNL1        0.1436
      5 C          65.0503   88.8751   14.4431 C.3     1  UNL1        0.0620
      6 C          64.4587   87.5028   14.3139 C.3     1  UNL1        0.0985
      7 N          63.5322   87.1895   13.1766 N.am    1  UNL1       -0.2640
      8 C          62.9406   85.8171   13.0475 C.2     1  UNL1        0.3042
      9 O          62.0141   85.5038   11.9102 O.2     1  UNL1       -0.2526
     10 N          63.2754   84.7581   14.0556 N.am    1  UNL1       -0.2866
     11 C          63.1974   88.2485   12.1685 C.3     1  UNL1        0.0985
     12 C          63.7890   89.6208   12.2977 C.3     1  UNL1        0.0620
     13 O          65.6419   90.2474   14.5723 O.3     1  UNL1       -0.4819
     14 C          66.2335   91.6198   14.7014 C.ar    1  UNL1        0.1409
     15 C          67.1600   91.9331   15.8388 C.ar    1  UNL1        0.0370
     16 C          67.7516   93.3054   15.9679 C.ar    1  UNL1        0.0031
     17 C          67.4168   94.3645   14.9598 C.ar    1  UNL1        0.0003
     18 C          66.4903   94.0512   13.8224 C.ar    1  UNL1        0.0059
     19 C          65.8987   92.6788   13.6933 C.ar    1  UNL1        0.0687
     20 H          63.8835   84.9638   14.8021 H       1  UNL1        0.1512
     21 C          62.6838   83.3857   13.9265 C.3     1  UNL1        0.0956
     22 C          61.7748   82.7208   14.9172 C.3     1  UNL1        0.0288
     23 C          61.4265   81.3614   14.3870 C.3     1  UNL1        0.0281
     24 C          62.1203   81.1864   13.0686 C.ar    1  UNL1       -0.0245
     25 C          62.1448   80.0495   12.0905 C.ar    1  UNL1       -0.0045
     26 C          62.9463   80.1636   10.8279 C.ar    1  UNL1       -0.0003
     27 C          63.7234   81.4147   10.5432 C.ar    1  UNL1       -0.0003
     28 C          63.6989   82.5516   11.5213 C.ar    1  UNL1       -0.0030
     29 C          62.8973   82.4375   12.7840 C.ar    1  UNL1       -0.0084
@<TRIPOS>BOND
     1     1     2    2
     2     2     3    1
     3     3     4    1
     4     4     5    1
     5     5     6    1
     6     6     7    1
     7     7     8   am
     8     8     9    2
     9     8    10   am
    10    10    21    1
    11    21    22    1
    12    22    23    1
    13    23    24    1
    14    24    25   ar
    15    25    26   ar
    16    26    27   ar
    17    27    28   ar
    18    28    29   ar
    19     7    11    1
    20    11    12    1
    21     4    13    1
    22    13    14    1
    23    14    15   ar
    24    15    16   ar
    25    16    17   ar
    26    17    18   ar
    27    18    19   ar
    28    19     2    1
    29    12     4    1
    30    19    14   ar
    31    29    21    1
    32    29    24   ar
    33    10    20    1
@<TRIPOS>MOLECULE
*****
 29 33 0 0 0
SMALL
GASTEIGER

@<TRIPOS>ATOM
      1 O          62.7991   86.0852   17.8596 O.2     1  UNL1       -0.2911
      2 C          63.1089   86.4462   16.4370 C.2     1  UNL1        0.1795
      3 C          63.5674   87.8336   16.0981 C.3     1  UNL1        0.1092
      4 C          63.8772   88.1946   14.6754 C.3     1  UNL1        0.1436
      5 C          64.1869   88.5555   13.2529 C.3     1  UNL1        0.0620
      6 C          64.6454   89.9429   12.9140 C.3     1  UNL1        0.0985
      7 N          64.7941   90.9694   13.9976 N.am    1  UNL1       -0.2640
      8 C          65.2527   92.3568   13.6587 C.2     1  UNL1        0.3042
      9 O          65.4014   93.3832   14.7423 O.2     1  UNL1       -0.2526
     10 N          65.5624   92.7178   12.2361 N.am    1  UNL1       -0.2866
     11 C          64.4844   90.6084   15.4202 C.3     1  UNL1        0.0985
     12 C          64.0259   89.2210   15.7591 C.3     1  UNL1        0.0620
     13 O          63.7284   87.1681   13.5918 O.3     1  UNL1       -0.4819
     14 C          63.2699   85.7807   13.9308 C.ar    1  UNL1        0.1409
     15 C          63.1212   84.7543   12.8471 C.ar    1  UNL1        0.0370
     16 C          62.6627   83.3669   13.1860 C.ar    1  UNL1        0.0031
     17 C          62.3529   83.0059   14.6086 C.ar    1  UNL1        0.0003
     18 C          62.5016   84.0323   15.6923 C.ar    1  UNL1        0.0059
     19 C          62.9602   85.4197   15.3533 C.ar    1  UNL1        0.0687
     20 H          65.4648   92.0441   11.5249 H       1  UNL1        0.1512
     21 C          66.0209   94.1052   11.8972 C.3     1  UNL1        0.0956
     22 C          66.0717   95.2717   12.8389 C.3     1  UNL1        0.0288
     23 C          66.5913   96.4572   12.0808 C.3     1  UNL1        0.0281
     24 C          66.8617   96.0233   10.6705 C.ar    1  UNL1       -0.0245
     25 C          67.3833   96.7640    9.4750 C.ar    1  UNL1       -0.0045
     26 C          67.5525   96.0512    8.1662 C.ar    1  UNL1       -0.0003
     27 C          67.2000   94.5976    8.0527 C.ar    1  UNL1       -0.0003
     28 C          66.6783   93.8569    9.2482 C.ar    1  UNL1       -0.0030
     29 C          66.5092   94.5697   10.5571 C.ar    1  UNL1       -0.0084
@<TRIPOS>BOND
     1     1     2    2
     2     2     3    1
     3     3     4    1
     4     4     5    1
     5     5     6    1
     6     6     7    1
     7     7     8   am
     8     8     9    2
     9     8    10   am
    10    10    21    1
    11    21    22    1
    12    22    23    1
    13    23    24    1
    14    24    25   ar
    15    25    26   ar
    16    26    27   ar
    17    27    28   ar
    18    28    29   ar
    19     7    11    1
    20    11    12    1
    21     4    13    1
    22    13    14    1
    23    14    15   ar
    24    15    16   ar
    25    16    17   ar
    26    17    18   ar
    27    18    19   ar
    28    19     2    1
    29    12     4    1
    30    19    14   ar
    31    29    21    1
    32    29    24   ar
    33    10    20    1
