@<TRIPOS>MOLECULE
*****
 24 26 0 0 0
SMALL
GASTEIGER

@<TRIPOS>ATOM
      1 C          63.4478   87.3896   15.9838 C.ar    1  UNL1        0.0536
      2 C          64.2546   87.7136   14.7614 C.ar    1  UNL1        0.0042
      3 C          64.6262   89.1360   14.4633 C.ar    1  UNL1       -0.0028
      4 C          64.1910   90.2343   15.3876 C.ar    1  UNL1       -0.0061
      5 C          63.3843   89.9103   16.6099 C.ar    1  UNL1       -0.0028
      6 C          63.0126   88.4879   16.9081 C.ar    1  UNL1        0.0042
      7 N          63.2322   82.8703   13.0208 N.3     1  UNL1       -0.2711
      8 C          62.8087   82.4803   14.4059 C.3     1  UNL1        0.0939
      9 C          62.7567   83.5126   15.4929 C.3     1  UNL1        0.1110
     10 N          63.1282   84.9349   15.1949 N.am    1  UNL1       -0.2732
     11 C          63.0762   85.9673   16.2819 C.2     1  UNL1        0.2491
     12 O          62.6527   85.5773   17.6669 O.2     1  UNL1       -0.2699
     13 C          63.5518   85.3249   13.8098 C.3     1  UNL1        0.1110
     14 C          63.6038   84.2926   12.7228 C.3     1  UNL1        0.0939
     15 C          63.8546   82.1899   10.5919 C.3     1  UNL1        0.0173
     16 C          63.2842   81.8379   11.9338 C.3     1  UNL1        0.0577
     17 C          62.7658   80.4536   12.1887 C.3     1  UNL1        0.0173
     18 C          64.5626   91.6567   15.0895 C.3     1  UNL1        0.0993
     19 N          66.0046   92.0371   14.9283 N.3     1  UNL1       -0.2646
     20 C          66.7333   92.7092   16.0540 C.3     1  UNL1        0.1049
     21 C          68.1752   93.0897   15.8928 C.3     1  UNL1        0.1595
     22 O          68.8885   92.7980   14.6058 O.3     1  UNL1       -0.3508
     23 C          68.1598   92.1259   13.4801 C.3     1  UNL1        0.1595
     24 C          66.7178   91.7454   13.6414 C.3     1  UNL1        0.1049
@<TRIPOS>BOND
     1    15    16    1
     2    16    17    1
     3    16     7    1
     4     7     8    1
     5     8     9    1
     6     9    10    1
     7    10    11   am
     8    11    12    2
     9    11     1    1
    10     1     2   ar
    11     2     3   ar
    12     3     4   ar
    13     4    18    1
    14    18    19    1
    15    19    20    1
    16    20    21    1
    17    21    22    1
    18    22    23    1
    19    23    24    1
    20     4     5   ar
    21     5     6   ar
    22    10    13    1
    23    13    14    1
    24    14     7    1
    25     6     1   ar
    26    24    19    1
@<TRIPOS>MOLECULE
*****
 24 26 0 0 0
SMALL
GASTEIGER

@<TRIPOS>ATOM
      1 C          64.9646   91.2742   14.2674 C.ar    1  UNL1        0.0536
      2 C          64.3144   91.6228   12.9613 C.ar    1  UNL1        0.0042
      3 C          65.1312   92.2155   11.8516 C.ar    1  UNL1       -0.0028
      4 C          66.5981   92.4596   12.0479 C.ar    1  UNL1       -0.0061
      5 C          67.2483   92.1110   13.3539 C.ar    1  UNL1       -0.0028
      6 C          66.4315   91.5183   14.4637 C.ar    1  UNL1        0.0042
      7 N          63.4922   86.2332   15.5601 N.3     1  UNL1       -0.2711
      8 C          62.8940   87.1233   16.6089 C.3     1  UNL1        0.0939
      9 C          63.1125   88.6060   16.5479 C.3     1  UNL1        0.1110
     10 N          63.9293   89.1987   15.4381 N.am    1  UNL1       -0.2732
     11 C          64.1478   90.6815   15.3771 C.2     1  UNL1        0.2491
     12 O          63.5496   91.5715   16.4259 O.2     1  UNL1       -0.2699
     13 C          64.5275   88.3087   14.3894 C.3     1  UNL1        0.1110
     14 C          64.3090   86.8259   14.4504 C.3     1  UNL1        0.0939
     15 C          64.3204   83.8157   15.0917 C.3     1  UNL1        0.0173
     16 C          63.2737   84.7505   15.6211 C.3     1  UNL1        0.0577
     17 C          62.0083   84.2026   16.2115 C.3     1  UNL1        0.0173
     18 C          67.4149   93.0523   10.9381 C.3     1  UNL1        0.0993
     19 N          66.9680   94.3201   10.2725 N.3     1  UNL1       -0.2646
     20 C          65.7866   95.0727   10.8091 C.3     1  UNL1        0.1049
     21 C          65.3397   96.3405   10.1436 C.3     1  UNL1        0.1595
     22 O          66.0741   96.8557    8.9413 O.3     1  UNL1       -0.3508
     23 C          67.2555   96.1030    8.4048 C.3     1  UNL1        0.1595
     24 C          67.7024   94.8352    9.0704 C.3     1  UNL1        0.1049
@<TRIPOS>BOND
     1    15    16    1
     2    16    17    1
     3    16     7    1
     4     7     8    1
     5     8     9    1
     6     9    10    1
     7    10    11   am
     8    11    12    2
     9    11     1    1
    10     1     2   ar
    11     2     3   ar
    12     3     4   ar
    13     4    18    1
    14    18    19    1
    15    19    20    1
    16    20    21    1
    17    21    22    1
    18    22    23    1
    19    23    24    1
    20     4     5   ar
    21     5     6   ar
    22    10    13    1
    23    13    14    1
    24    14     7    1
    25     6     1   ar
    26    24    19    1
@<TRIPOS>MOLECULE
*****
 24 26 0 0 0
SMALL
GASTEIGER

@<TRIPOS>ATOM
      1 C          63.9059   89.9308   13.0502 C.ar    1  UNL1        0.0536
      2 C          63.0525   90.0633   11.8237 C.ar    1  UNL1        0.0042
      3 C          62.4116   88.8484   11.2210 C.ar    1  UNL1       -0.0028
      4 C          62.6242   87.5009   11.8448 C.ar    1  UNL1       -0.0061
      5 C          63.4775   87.3683   13.0712 C.ar    1  UNL1       -0.0028
      6 C          64.1184   88.5833   13.6739 C.ar    1  UNL1        0.0042
      7 N          66.3805   94.2767   10.9913 N.3     1  UNL1       -0.2711
      8 C          66.4100   94.4479   12.4812 C.3     1  UNL1        0.0939
      9 C          65.7988   93.4043   13.3684 C.3     1  UNL1        0.1110
     10 N          65.1580   92.1893   12.7657 N.am    1  UNL1       -0.2732
     11 C          64.5467   91.1457   13.6529 C.2     1  UNL1        0.2491
     12 O          64.5762   91.3169   15.1427 O.2     1  UNL1       -0.2699
     13 C          65.1284   92.0181   11.2758 C.3     1  UNL1        0.1110
     14 C          65.7397   93.0617   10.3886 C.3     1  UNL1        0.0939
     15 C          66.8103   96.7749   10.4222 C.3     1  UNL1        0.0173
     16 C          66.9918   95.3203   10.1041 C.3     1  UNL1        0.0577
     17 C          67.7845   94.9094    8.8989 C.3     1  UNL1        0.0173
     18 C          61.9833   86.2859   11.2420 C.3     1  UNL1        0.0993
     19 N          62.6942   84.9657   11.2809 N.3     1  UNL1       -0.2646
     20 C          62.7370   84.1741   12.5543 C.3     1  UNL1        0.1049
     21 C          63.4478   82.8539   12.5932 C.3     1  UNL1        0.1595
     22 O          64.1160   82.3251   11.3587 O.3     1  UNL1       -0.3508
     23 C          64.0732   83.1167   10.0852 C.3     1  UNL1        0.1595
     24 C          63.3623   84.4370   10.0464 C.3     1  UNL1        0.1049
@<TRIPOS>BOND
     1    15    16    1
     2    16    17    1
     3    16     7    1
     4     7     8    1
     5     8     9    1
     6     9    10    1
     7    10    11   am
     8    11    12    2
     9    11     1    1
    10     1     2   ar
    11     2     3   ar
    12     3     4   ar
    13     4    18    1
    14    18    19    1
    15    19    20    1
    16    20    21    1
    17    21    22    1
    18    22    23    1
    19    23    24    1
    20     4     5   ar
    21     5     6   ar
    22    10    13    1
    23    13    14    1
    24    14     7    1
    25     6     1   ar
    26    24    19    1
@<TRIPOS>MOLECULE
*****
 24 26 0 0 0
SMALL
GASTEIGER

@<TRIPOS>ATOM
      1 C          64.0731   90.2548   12.5233 C.ar    1  UNL1        0.0536
      2 C          64.0075   91.1714   11.3377 C.ar    1  UNL1        0.0042
      3 C          64.7633   92.4670   11.3487 C.ar    1  UNL1       -0.0028
      4 C          65.5847   92.8460   12.5452 C.ar    1  UNL1       -0.0061
      5 C          65.6503   91.9294   13.7308 C.ar    1  UNL1       -0.0028
      6 C          64.8945   90.6338   13.7198 C.ar    1  UNL1        0.0042
      7 N          60.4798   88.0380    9.1433 N.3     1  UNL1       -0.2711
      8 C          60.6698   87.0495   10.2554 C.3     1  UNL1        0.0939
      9 C          61.6156   87.3565   11.3784 C.3     1  UNL1        0.1110
     10 N          62.3715   88.6521   11.3893 N.am    1  UNL1       -0.2732
     11 C          63.3173   88.9592   12.5123 C.2     1  UNL1        0.2491
     12 O          63.5073   87.9706   13.6244 O.2     1  UNL1       -0.2699
     13 C          62.1814   89.6406   10.2773 C.3     1  UNL1        0.1110
     14 C          61.2356   89.3336    9.1543 C.3     1  UNL1        0.0939
     15 C          59.0674   88.8291    7.1113 C.3     1  UNL1        0.0173
     16 C          59.5340   87.7309    8.0203 C.3     1  UNL1        0.0577
     17 C          59.0548   86.3258    7.8063 C.3     1  UNL1        0.0173
     18 C          66.3406   94.1417   12.5561 C.3     1  UNL1        0.0993
     19 N          66.7505   94.7818   11.2630 N.3     1  UNL1       -0.2646
     20 C          66.3772   96.2067   10.9801 C.3     1  UNL1        0.1049
     21 C          66.7870   96.8468    9.6869 C.3     1  UNL1        0.1595
     22 O          67.5703   96.0619    8.6767 O.3     1  UNL1       -0.3508
     23 C          67.9436   94.6370    8.9596 C.3     1  UNL1        0.1595
     24 C          67.5337   93.9969   10.2528 C.3     1  UNL1        0.1049
@<TRIPOS>BOND
     1    15    16    1
     2    16    17    1
     3    16     7    1
     4     7     8    1
     5     8     9    1
     6     9    10    1
     7    10    11   am
     8    11    12    2
     9    11     1    1
    10     1     2   ar
    11     2     3   ar
    12     3     4   ar
    13     4    18    1
    14    18    19    1
    15    19    20    1
    16    20    21    1
    17    21    22    1
    18    22    23    1
    19    23    24    1
    20     4     5   ar
    21     5     6   ar
    22    10    13    1
    23    13    14    1
    24    14     7    1
    25     6     1   ar
    26    24    19    1
@<TRIPOS>MOLECULE
*****
 24 26 0 0 0
SMALL
GASTEIGER

@<TRIPOS>ATOM
      1 C          64.2920   90.0514   13.5452 C.ar    1  UNL1        0.0536
      2 C          64.5878   88.8171   14.3447 C.ar    1  UNL1        0.0042
      3 C          64.0230   87.4944   13.9187 C.ar    1  UNL1       -0.0028
      4 C          63.1625   87.4060   12.6933 C.ar    1  UNL1       -0.0061
      5 C          62.8667   88.6402   11.8938 C.ar    1  UNL1       -0.0028
      6 C          63.4315   89.9630   12.3198 C.ar    1  UNL1        0.0042
      7 N          66.4170   94.2536   10.8850 N.3     1  UNL1       -0.2711
      8 C          66.4617   94.6164   12.3397 C.3     1  UNL1        0.0939
      9 C          65.9416   93.6566   13.3685 C.3     1  UNL1        0.1110
     10 N          65.3768   92.3339   12.9425 N.am    1  UNL1       -0.2732
     11 C          64.8568   91.3741   13.9712 C.2     1  UNL1        0.2491
     12 O          64.9015   91.7370   15.4259 O.2     1  UNL1       -0.2699
     13 C          65.3322   91.9711   11.4878 C.3     1  UNL1        0.1110
     14 C          65.8522   92.9309   10.4590 C.3     1  UNL1        0.0939
     15 C          67.5368   94.6955    8.5827 C.3     1  UNL1        0.0173
     16 C          66.9370   95.2134    9.8563 C.3     1  UNL1        0.0577
     17 C          66.8574   96.6911   10.1011 C.3     1  UNL1        0.0173
     18 C          62.5978   86.0832   12.2673 C.3     1  UNL1        0.0993
     19 N          62.9506   84.8379   13.0254 N.3     1  UNL1       -0.2646
     20 C          63.9183   83.8525   12.4403 C.3     1  UNL1        0.1049
     21 C          64.2711   82.6072   13.1984 C.3     1  UNL1        0.1595
     22 O          63.6562   82.3473   14.5417 O.3     1  UNL1       -0.3508
     23 C          62.6884   83.3328   15.1268 C.3     1  UNL1        0.1595
     24 C          62.3356   84.5781   14.3686 C.3     1  UNL1        0.1049
@<TRIPOS>BOND
     1    15    16    1
     2    16    17    1
     3    16     7    1
     4     7     8    1
     5     8     9    1
     6     9    10    1
     7    10    11   am
     8    11    12    2
     9    11     1    1
    10     1     2   ar
    11     2     3   ar
    12     3     4   ar
    13     4    18    1
    14    18    19    1
    15    19    20    1
    16    20    21    1
    17    21    22    1
    18    22    23    1
    19    23    24    1
    20     4     5   ar
    21     5     6   ar
    22    10    13    1
    23    13    14    1
    24    14     7    1
    25     6     1   ar
    26    24    19    1
@<TRIPOS>MOLECULE
*****
 24 26 0 0 0
SMALL
GASTEIGER

@<TRIPOS>ATOM
      1 C          63.9123   89.6954   13.2018 C.ar    1  UNL1        0.0536
      2 C          64.1681   88.3458   13.8045 C.ar    1  UNL1        0.0042
      3 C          63.4948   87.1313   13.2374 C.ar    1  UNL1       -0.0028
      4 C          62.5655   87.2664   12.0677 C.ar    1  UNL1       -0.0061
      5 C          62.3096   88.6159   11.4650 C.ar    1  UNL1       -0.0028
      6 C          62.9830   89.8305   12.0320 C.ar    1  UNL1        0.0042
      7 N          66.2473   94.0547   11.0121 N.3     1  UNL1       -0.2711
      8 C          66.3668   94.2209   12.4980 C.3     1  UNL1        0.0939
      9 C          65.8129   93.1726   13.4169 C.3     1  UNL1        0.1110
     10 N          65.1395   91.9581   12.8499 N.am    1  UNL1       -0.2732
     11 C          64.5856   90.9099   13.7688 C.2     1  UNL1        0.2491
     12 O          64.7051   91.0761   15.2547 O.2     1  UNL1       -0.2699
     13 C          65.0200   91.7919   11.3640 C.3     1  UNL1        0.1110
     14 C          65.5739   92.8402   10.4451 C.3     1  UNL1        0.0939
     15 C          66.4902   96.5506   10.3330 C.3     1  UNL1        0.0173
     16 C          66.8012   95.1029   10.0932 C.3     1  UNL1        0.0577
     17 C          67.6660   94.7035    8.9346 C.3     1  UNL1        0.0173
     18 C          61.8921   86.0518   11.5007 C.3     1  UNL1        0.0993
     19 N          61.7987   85.8711   10.0145 N.3     1  UNL1       -0.2646
     20 C          62.9293   85.2318    9.2642 C.3     1  UNL1        0.1049
     21 C          62.8359   85.0511    7.7781 C.3     1  UNL1        0.1595
     22 O          61.6118   85.5098    7.0422 O.3     1  UNL1       -0.3508
     23 C          60.4812   86.1491    7.7926 C.3     1  UNL1        0.1595
     24 C          60.5747   86.3298    9.2788 C.3     1  UNL1        0.1049
@<TRIPOS>BOND
     1    15    16    1
     2    16    17    1
     3    16     7    1
     4     7     8    1
     5     8     9    1
     6     9    10    1
     7    10    11   am
     8    11    12    2
     9    11     1    1
    10     1     2   ar
    11     2     3   ar
    12     3     4   ar
    13     4    18    1
    14    18    19    1
    15    19    20    1
    16    20    21    1
    17    21    22    1
    18    22    23    1
    19    23    24    1
    20     4     5   ar
    21     5     6   ar
    22    10    13    1
    23    13    14    1
    24    14     7    1
    25     6     1   ar
    26    24    19    1
@<TRIPOS>MOLECULE
*****
 24 26 0 0 0
SMALL
GASTEIGER

@<TRIPOS>ATOM
      1 C          63.1558   90.2025   11.2082 C.ar    1  UNL1        0.0536
      2 C          63.6721   90.2897   12.6139 C.ar    1  UNL1        0.0042
      3 C          64.6145   91.3910   12.9998 C.ar    1  UNL1       -0.0028
      4 C          65.0406   92.4052   11.9801 C.ar    1  UNL1       -0.0061
      5 C          64.5243   92.3181   10.5745 C.ar    1  UNL1       -0.0028
      6 C          63.5819   91.2167   10.1885 C.ar    1  UNL1        0.0042
      7 N          62.5913   85.0442   12.7322 N.3     1  UNL1       -0.2711
      8 C          61.5229   85.2952   11.7097 C.3     1  UNL1        0.0939
      9 C          61.3970   86.6475   11.0731 C.3     1  UNL1        0.1110
     10 N          62.3394   87.7488   11.4590 N.am    1  UNL1       -0.2732
     11 C          62.2134   89.1012   10.8223 C.2     1  UNL1        0.2491
     12 O          61.1451   89.3522    9.7998 O.2     1  UNL1       -0.2699
     13 C          63.4077   87.4978   12.4815 C.3     1  UNL1        0.1110
     14 C          63.5336   86.1455   13.1181 C.3     1  UNL1        0.0939
     15 C          62.7178   83.5635   14.8633 C.3     1  UNL1        0.0173
     16 C          62.7172   83.6918   13.3689 C.3     1  UNL1        0.0577
     17 C          62.8426   82.4678   12.5110 C.3     1  UNL1        0.0173
     18 C          65.9830   93.5066   12.3661 C.3     1  UNL1        0.0993
     19 N          66.5080   94.4452   11.3205 N.3     1  UNL1       -0.2646
     20 C          66.2282   95.9153   11.4237 C.3     1  UNL1        0.1049
     21 C          66.7532   96.8539   10.3781 C.3     1  UNL1        0.1595
     22 O          67.5582   96.3225    9.2293 O.3     1  UNL1       -0.3508
     23 C          67.8380   94.8524    9.1261 C.3     1  UNL1        0.1595
     24 C          67.3130   93.9138   10.1717 C.3     1  UNL1        0.1049
@<TRIPOS>BOND
     1    15    16    1
     2    16    17    1
     3    16     7    1
     4     7     8    1
     5     8     9    1
     6     9    10    1
     7    10    11   am
     8    11    12    2
     9    11     1    1
    10     1     2   ar
    11     2     3   ar
    12     3     4   ar
    13     4    18    1
    14    18    19    1
    15    19    20    1
    16    20    21    1
    17    21    22    1
    18    22    23    1
    19    23    24    1
    20     4     5   ar
    21     5     6   ar
    22    10    13    1
    23    13    14    1
    24    14     7    1
    25     6     1   ar
    26    24    19    1
@<TRIPOS>MOLECULE
*****
 24 26 0 0 0
SMALL
GASTEIGER

@<TRIPOS>ATOM
      1 C          63.2457   88.6458   12.4437 C.ar    1  UNL1        0.0536
      2 C          63.2008   90.1094   12.1179 C.ar    1  UNL1        0.0042
      3 C          63.8102   91.1062   13.0585 C.ar    1  UNL1       -0.0028
      4 C          64.4646   90.6396   14.3250 C.ar    1  UNL1       -0.0061
      5 C          64.5096   89.1762   14.6509 C.ar    1  UNL1       -0.0028
      6 C          63.9002   88.1792   13.7103 C.ar    1  UNL1        0.0042
      7 N          63.0583   83.2424   12.3118 N.3     1  UNL1       -0.2711
      8 C          62.3082   83.7144   11.1016 C.3     1  UNL1        0.0939
      9 C          62.1675   85.1832   10.8321 C.3     1  UNL1        0.1110
     10 N          62.7770   86.1801   11.7727 N.am    1  UNL1       -0.2732
     11 C          62.6363   87.6489   11.5031 C.2     1  UNL1        0.2491
     12 O          61.8862   88.1209   10.2930 O.2     1  UNL1       -0.2699
     13 C          63.5270   85.7081   12.9828 C.3     1  UNL1        0.1110
     14 C          63.6677   84.2392   13.2524 C.3     1  UNL1        0.0939
     15 C          63.6914   81.2998   13.9166 C.3     1  UNL1        0.0173
     16 C          63.1989   81.7735   12.5813 C.3     1  UNL1        0.0577
     17 C          62.8471   80.7783   11.5156 C.3     1  UNL1        0.0173
     18 C          65.0741   91.6366   15.2656 C.3     1  UNL1        0.0993
     19 N          66.4923   92.0838   15.0688 N.3     1  UNL1       -0.2646
     20 C          67.1548   92.9511   16.0978 C.3     1  UNL1        0.1049
     21 C          68.5730   93.3983   15.9010 C.3     1  UNL1        0.1595
     22 O          69.3287   92.9781   14.6752 O.3     1  UNL1       -0.3508
     23 C          68.6661   92.1108   13.6463 C.3     1  UNL1        0.1595
     24 C          67.2479   91.6636   13.8431 C.3     1  UNL1        0.1049
@<TRIPOS>BOND
     1    15    16    1
     2    16    17    1
     3    16     7    1
     4     7     8    1
     5     8     9    1
     6     9    10    1
     7    10    11   am
     8    11    12    2
     9    11     1    1
    10     1     2   ar
    11     2     3   ar
    12     3     4   ar
    13     4    18    1
    14    18    19    1
    15    19    20    1
    16    20    21    1
    17    21    22    1
    18    22    23    1
    19    23    24    1
    20     4     5   ar
    21     5     6   ar
    22    10    13    1
    23    13    14    1
    24    14     7    1
    25     6     1   ar
    26    24    19    1
@<TRIPOS>MOLECULE
*****
 24 26 0 0 0
SMALL
GASTEIGER

@<TRIPOS>ATOM
      1 C          63.8855   87.2516   14.1590 C.ar    1  UNL1        0.0536
      2 C          63.2524   87.3308   12.8014 C.ar    1  UNL1        0.0042
      3 C          63.1352   88.6539   12.1046 C.ar    1  UNL1       -0.0028
      4 C          63.6509   89.8979   12.7653 C.ar    1  UNL1       -0.0061
      5 C          64.2840   89.8187   14.1229 C.ar    1  UNL1       -0.0028
      6 C          64.4013   88.4955   14.8197 C.ar    1  UNL1        0.0042
      7 N          63.2044   82.1182   12.5987 N.3     1  UNL1       -0.2711
      8 C          63.5878   82.0652   14.0479 C.3     1  UNL1        0.0939
      9 C          63.8539   83.3353   14.8003 C.3     1  UNL1        0.1110
     10 N          63.7366   84.6584   14.1034 N.am    1  UNL1       -0.2732
     11 C          64.0027   85.9285   14.8558 C.2     1  UNL1        0.2491
     12 O          64.3861   85.8755   16.3050 O.2     1  UNL1       -0.2699
     13 C          63.3532   84.7114   12.6543 C.3     1  UNL1        0.1110
     14 C          63.0871   83.4413   11.9019 C.3     1  UNL1        0.0939
     15 C          62.4854   79.6217   12.5816 C.3     1  UNL1        0.0173
     16 C          62.9382   80.8482   11.8463 C.3     1  UNL1        0.0577
     17 C          63.1249   80.8045   10.3587 C.3     1  UNL1        0.0173
     18 C          63.5337   91.2210   12.0685 C.3     1  UNL1        0.0993
     19 N          64.7372   92.1056   11.9309 N.3     1  UNL1       -0.2646
     20 C          65.4900   92.5430   13.1524 C.3     1  UNL1        0.1049
     21 C          66.6936   93.4276   13.0149 C.3     1  UNL1        0.1595
     22 O          67.1445   93.8746   11.6559 O.3     1  UNL1       -0.3508
     23 C          66.3917   93.4372   10.4344 C.3     1  UNL1        0.1595
     24 C          65.1881   92.5526   10.5720 C.3     1  UNL1        0.1049
@<TRIPOS>BOND
     1    15    16    1
     2    16    17    1
     3    16     7    1
     4     7     8    1
     5     8     9    1
     6     9    10    1
     7    10    11   am
     8    11    12    2
     9    11     1    1
    10     1     2   ar
    11     2     3   ar
    12     3     4   ar
    13     4    18    1
    14    18    19    1
    15    19    20    1
    16    20    21    1
    17    21    22    1
    18    22    23    1
    19    23    24    1
    20     4     5   ar
    21     5     6   ar
    22    10    13    1
    23    13    14    1
    24    14     7    1
    25     6     1   ar
    26    24    19    1
