@<TRIPOS>MOLECULE
*****
 28 31 0 0 0
SMALL
GASTEIGER

@<TRIPOS>ATOM
      1 C          62.7195   88.7865   11.6897 C.3     1  UNL1        0.0233
      2 C          63.2505   87.7423   12.6266 C.3     1  UNL1        0.0953
      3 C          62.9638   86.2919   12.3734 C.3     1  UNL1        0.1106
      4 N          63.4948   85.2477   13.3103 N.pl3   1  UNL1       -0.3041
      5 C          64.3124   85.6539   14.5004 C.3     1  UNL1        0.1123
      6 C          64.5990   87.1043   14.7537 C.3     1  UNL1        0.1149
      7 N          64.0680   88.1485   13.8168 N.pl3   1  UNL1       -0.2777
      8 C          64.3547   89.5989   14.0701 C.ar    1  UNL1        0.2035
      9 N          65.0635   90.4160   13.0308 N.ar    1  UNL1       -0.2133
     10 C          65.3502   91.8664   13.2841 C.ar    1  UNL1        0.1065
     11 C          64.9281   92.4998   14.5767 C.ar    1  UNL1        0.0815
     12 C          64.2193   91.6827   15.6159 C.ar    1  UNL1        0.2646
     13 O          63.7972   92.3161   16.9085 O.2     1  UNL1       -0.2668
     14 N          63.9326   90.2323   15.3626 N.ar    1  UNL1       -0.2667
     15 C          63.2238   89.4152   16.4019 C.3     1  UNL1        0.1363
     16 C          66.0589   92.6834   12.2448 C.ar    1  UNL1        0.1024
     17 C          66.9552   92.0128   11.2463 C.ar    1  UNL1        0.0414
     18 C          67.6639   92.8298   10.2071 C.ar    1  UNL1        0.1023
     19 N          67.4765   94.3175   10.1662 N.ar    1  UNL1       -0.2224
     20 C          66.5802   94.9882   11.1647 C.ar    1  UNL1        0.1989
     21 N          65.8714   94.1711   12.2040 N.ar    1  UNL1       -0.2224
     22 C          63.2081   83.7973   13.0570 C.ar    1  UNL1        0.0481
     23 C          63.4222   83.2181   11.6900 C.ar    1  UNL1        0.0168
     24 C          63.1356   81.7677   11.4366 C.ar    1  UNL1        0.0309
     25 C          62.6348   80.8965   12.5503 C.ar    1  UNL1        0.1402
     26 F          62.3482   79.4461   12.2970 F       1  UNL1       -0.2042
     27 C          62.4208   81.4756   13.9173 C.ar    1  UNL1        0.0309
     28 C          62.7074   82.9261   14.1706 C.ar    1  UNL1        0.0168
@<TRIPOS>BOND
     1     2     1    1
     2     2     3    1
     3     3     4    1
     4     4    22    1
     5    22    23   ar
     6    23    24   ar
     7    24    25   ar
     8    25    26    1
     9    25    27   ar
    10    27    28   ar
    11     4     5    1
    12     5     6    1
    13     6     7    1
    14     7     8    1
    15     8     9   ar
    16     9    10   ar
    17    10    16    1
    18    16    17   ar
    19    17    18   ar
    20    18    19   ar
    21    19    20   ar
    22    20    21   ar
    23    10    11   ar
    24    11    12   ar
    25    12    13    2
    26    12    14   ar
    27    14    15    1
    28     7     2    1
    29    14     8   ar
    30    28    22   ar
    31    21    16   ar
@<TRIPOS>MOLECULE
*****
 28 31 0 0 0
SMALL
GASTEIGER

@<TRIPOS>ATOM
      1 C          64.5361   87.1826   14.8174 C.3     1  UNL1        0.0233
      2 C          63.7838   86.4385   13.7542 C.3     1  UNL1        0.0953
      3 C          63.5575   84.9619   13.8896 C.3     1  UNL1        0.1106
      4 N          62.8053   84.2178   12.8265 N.pl3   1  UNL1       -0.3041
      5 C          62.2793   84.9502   11.6278 C.3     1  UNL1        0.1123
      6 C          62.5055   86.4268   11.4924 C.3     1  UNL1        0.1149
      7 N          63.2578   87.1710   12.5556 N.pl3   1  UNL1       -0.2777
      8 C          63.4841   88.6477   12.4201 C.ar    1  UNL1        0.2035
      9 N          64.2500   89.3890   13.4754 N.ar    1  UNL1       -0.2133
     10 C          64.4763   90.8656   13.3399 C.ar    1  UNL1        0.1065
     11 C          63.9366   91.6009   12.1491 C.ar    1  UNL1        0.0815
     12 C          63.1707   90.8596   11.0937 C.ar    1  UNL1        0.2646
     13 O          62.6310   91.5949    9.9029 O.2     1  UNL1       -0.2668
     14 N          62.9444   89.3829   11.2292 N.ar    1  UNL1       -0.2667
     15 C          62.1785   88.6416   10.1739 C.3     1  UNL1        0.1363
     16 C          65.2423   91.6069   14.3953 C.ar    1  UNL1        0.1024
     17 C          66.6361   92.0846   14.1141 C.ar    1  UNL1        0.0414
     18 C          67.4020   92.8260   15.1695 C.ar    1  UNL1        0.1023
     19 N          66.7742   93.0895   16.5060 N.ar    1  UNL1       -0.2224
     20 C          65.3803   92.6118   16.7872 C.ar    1  UNL1        0.1989
     21 N          64.6144   91.8705   15.7319 N.ar    1  UNL1       -0.2224
     22 C          62.5790   82.7411   12.9620 C.ar    1  UNL1        0.0481
     23 C          61.8741   82.1981   14.1696 C.ar    1  UNL1        0.0168
     24 C          61.6478   80.7215   14.3051 C.ar    1  UNL1        0.0309
     25 C          62.1264   79.7878   13.2330 C.ar    1  UNL1        0.1402
     26 F          61.9002   78.3112   13.3686 F       1  UNL1       -0.2042
     27 C          62.8313   80.3308   12.0254 C.ar    1  UNL1        0.0309
     28 C          63.0576   81.8075   11.8899 C.ar    1  UNL1        0.0168
@<TRIPOS>BOND
     1     2     1    1
     2     2     3    1
     3     3     4    1
     4     4    22    1
     5    22    23   ar
     6    23    24   ar
     7    24    25   ar
     8    25    26    1
     9    25    27   ar
    10    27    28   ar
    11     4     5    1
    12     5     6    1
    13     6     7    1
    14     7     8    1
    15     8     9   ar
    16     9    10   ar
    17    10    16    1
    18    16    17   ar
    19    17    18   ar
    20    18    19   ar
    21    19    20   ar
    22    20    21   ar
    23    10    11   ar
    24    11    12   ar
    25    12    13    2
    26    12    14   ar
    27    14    15    1
    28     7     2    1
    29    14     8   ar
    30    28    22   ar
    31    21    16   ar
@<TRIPOS>MOLECULE
*****
 28 31 0 0 0
SMALL
GASTEIGER

@<TRIPOS>ATOM
      1 C          62.4476   86.6324    9.0115 C.3     1  UNL1        0.0233
      2 C          62.4929   85.8263   10.2757 C.3     1  UNL1        0.0953
      3 C          62.5810   84.3304   10.2085 C.3     1  UNL1        0.1106
      4 N          62.6264   83.5243   11.4727 N.pl3   1  UNL1       -0.3041
      5 C          62.5836   84.2140   12.8040 C.3     1  UNL1        0.1123
      6 C          62.4955   85.7098   12.8711 C.3     1  UNL1        0.1149
      7 N          62.4502   86.5160   11.6070 N.pl3   1  UNL1       -0.2777
      8 C          62.3621   88.0120   11.6742 C.ar    1  UNL1        0.2035
      9 N          63.5002   88.8054   12.2443 N.ar    1  UNL1       -0.2133
     10 C          63.4122   90.3013   12.3115 C.ar    1  UNL1        0.1065
     11 C          62.1859   91.0038   11.8086 C.ar    1  UNL1        0.0815
     12 C          61.0477   90.2103   11.2385 C.ar    1  UNL1        0.2646
     13 O          59.8215   90.9127   10.7357 O.2     1  UNL1       -0.2668
     14 N          61.1358   88.7144   11.1713 N.ar    1  UNL1       -0.2667
     15 C          59.9977   87.9209   10.6013 C.3     1  UNL1        0.1363
     16 C          64.5504   91.0947   12.8816 C.ar    1  UNL1        0.1024
     17 C          65.1482   90.7067   14.2014 C.ar    1  UNL1        0.0414
     18 C          66.2864   91.5002   14.7715 C.ar    1  UNL1        0.1023
     19 N          66.8267   92.6816   14.0217 N.ar    1  UNL1       -0.2224
     20 C          66.2289   93.0697   12.7018 C.ar    1  UNL1        0.1989
     21 N          65.0907   92.2762   12.1317 N.ar    1  UNL1       -0.2224
     22 C          62.7145   82.0283   11.4055 C.ar    1  UNL1        0.0481
     23 C          63.0418   81.3539   10.1062 C.ar    1  UNL1        0.0168
     24 C          63.1299   79.8581   10.0390 C.ar    1  UNL1        0.0309
     25 C          62.8907   79.0365   11.2710 C.ar    1  UNL1        0.1402
     26 F          62.9788   77.5406   11.2038 F       1  UNL1       -0.2042
     27 C          62.5633   79.7109   12.5703 C.ar    1  UNL1        0.0309
     28 C          62.4752   81.2068   12.6375 C.ar    1  UNL1        0.0168
@<TRIPOS>BOND
     1     2     1    1
     2     2     3    1
     3     3     4    1
     4     4    22    1
     5    22    23   ar
     6    23    24   ar
     7    24    25   ar
     8    25    26    1
     9    25    27   ar
    10    27    28   ar
    11     4     5    1
    12     5     6    1
    13     6     7    1
    14     7     8    1
    15     8     9   ar
    16     9    10   ar
    17    10    16    1
    18    16    17   ar
    19    17    18   ar
    20    18    19   ar
    21    19    20   ar
    22    20    21   ar
    23    10    11   ar
    24    11    12   ar
    25    12    13    2
    26    12    14   ar
    27    14    15    1
    28     7     2    1
    29    14     8   ar
    30    28    22   ar
    31    21    16   ar
@<TRIPOS>MOLECULE
*****
 28 31 0 0 0
SMALL
GASTEIGER

@<TRIPOS>ATOM
      1 C          65.5002   86.4064   15.3445 C.3     1  UNL1        0.0233
      2 C          64.5309   86.0807   14.2471 C.3     1  UNL1        0.0953
      3 C          64.3486   84.6591   13.8048 C.3     1  UNL1        0.1106
      4 N          63.3792   84.3334   12.7074 N.pl3   1  UNL1       -0.3041
      5 C          62.5922   85.4294   12.0523 C.3     1  UNL1        0.1123
      6 C          62.7744   86.8511   12.4946 C.3     1  UNL1        0.1149
      7 N          63.7438   87.1767   13.5920 N.pl3   1  UNL1       -0.2777
      8 C          63.9260   88.5984   14.0343 C.ar    1  UNL1        0.2035
      9 N          64.4400   89.6244   13.0682 N.ar    1  UNL1       -0.2133
     10 C          64.6222   91.0460   13.5104 C.ar    1  UNL1        0.1065
     11 C          64.2905   91.4419   14.9187 C.ar    1  UNL1        0.0815
     12 C          63.7766   90.4159   15.8848 C.ar    1  UNL1        0.2646
     13 O          63.4449   90.8116   17.2931 O.2     1  UNL1       -0.2668
     14 N          63.5943   88.9942   15.4426 N.ar    1  UNL1       -0.2667
     15 C          63.0804   87.9682   16.4086 C.3     1  UNL1        0.1363
     16 C          65.1362   92.0720   12.5443 C.ar    1  UNL1        0.1024
     17 C          65.9976   93.1981   13.0339 C.ar    1  UNL1        0.0414
     18 C          66.5115   94.2240   12.0678 C.ar    1  UNL1        0.1023
     19 N          66.1640   94.1239   10.6121 N.ar    1  UNL1       -0.2224
     20 C          65.3026   92.9977   10.1224 C.ar    1  UNL1        0.1989
     21 N          64.7886   91.9718   11.0885 N.ar    1  UNL1       -0.2224
     22 C          63.1970   82.9117   12.2651 C.ar    1  UNL1        0.0481
     23 C          62.7878   81.8641   13.2577 C.ar    1  UNL1        0.0168
     24 C          62.6056   80.4424   12.8155 C.ar    1  UNL1        0.0309
     25 C          62.8325   80.0683   11.3807 C.ar    1  UNL1        0.1402
     26 F          62.6503   78.6466   10.9385 F       1  UNL1       -0.2042
     27 C          63.2417   81.1159   10.3881 C.ar    1  UNL1        0.0309
     28 C          63.4239   82.5376   10.8304 C.ar    1  UNL1        0.0168
@<TRIPOS>BOND
     1     2     1    1
     2     2     3    1
     3     3     4    1
     4     4    22    1
     5    22    23   ar
     6    23    24   ar
     7    24    25   ar
     8    25    26    1
     9    25    27   ar
    10    27    28   ar
    11     4     5    1
    12     5     6    1
    13     6     7    1
    14     7     8    1
    15     8     9   ar
    16     9    10   ar
    17    10    16    1
    18    16    17   ar
    19    17    18   ar
    20    18    19   ar
    21    19    20   ar
    22    20    21   ar
    23    10    11   ar
    24    11    12   ar
    25    12    13    2
    26    12    14   ar
    27    14    15    1
    28     7     2    1
    29    14     8   ar
    30    28    22   ar
    31    21    16   ar
@<TRIPOS>MOLECULE
*****
 28 31 0 0 0
SMALL
GASTEIGER

@<TRIPOS>ATOM
      1 C          59.8433   88.8795   11.8919 C.3     1  UNL1        0.0233
      2 C          61.1846   89.4845   11.6003 C.3     1  UNL1        0.0953
      3 C          62.0140   90.0437   12.7180 C.3     1  UNL1        0.1106
      4 N          63.3553   90.6487   12.4264 N.pl3   1  UNL1       -0.3041
      5 C          63.8670   90.6945   11.0172 C.3     1  UNL1        0.1123
      6 C          63.0376   90.1353    9.8996 C.3     1  UNL1        0.1149
      7 N          61.6963   89.5303   10.1911 N.pl3   1  UNL1       -0.2777
      8 C          60.8668   88.9711    9.0734 C.ar    1  UNL1        0.2035
      9 N          60.1694   89.8969    8.1213 N.ar    1  UNL1       -0.2133
     10 C          59.3400   89.3378    7.0036 C.ar    1  UNL1        0.1065
     11 C          59.2079   87.8527    6.8379 C.ar    1  UNL1        0.0815
     12 C          59.9053   86.9269    7.7900 C.ar    1  UNL1        0.2646
     13 O          59.7733   85.4420    7.6244 O.2     1  UNL1       -0.2668
     14 N          60.7348   87.4862    8.9078 N.ar    1  UNL1       -0.2667
     15 C          61.4322   86.5604    9.8599 C.3     1  UNL1        0.1363
     16 C          58.6425   90.2636    6.0515 C.ar    1  UNL1        0.1024
     17 C          59.4430   91.1824    5.1769 C.ar    1  UNL1        0.0414
     18 C          58.7456   92.1082    4.2248 C.ar    1  UNL1        0.1023
     19 N          57.2477   92.1151    4.1473 N.ar    1  UNL1       -0.2224
     20 C          56.4471   91.1963    5.0218 C.ar    1  UNL1        0.1989
     21 N          57.1445   90.2705    5.9739 N.ar    1  UNL1       -0.2224
     22 C          64.1848   91.2079   13.5442 C.ar    1  UNL1        0.0481
     23 C          63.7941   90.9505   14.9694 C.ar    1  UNL1        0.0168
     24 C          64.6235   91.5097   16.0871 C.ar    1  UNL1        0.0309
     25 C          65.8437   92.3263   15.7797 C.ar    1  UNL1        0.1402
     26 F          66.6731   92.8855   16.8974 F       1  UNL1       -0.2042
     27 C          66.2343   92.5837   14.3545 C.ar    1  UNL1        0.0309
     28 C          65.4049   92.0245   13.2367 C.ar    1  UNL1        0.0168
@<TRIPOS>BOND
     1     2     1    1
     2     2     3    1
     3     3     4    1
     4     4    22    1
     5    22    23   ar
     6    23    24   ar
     7    24    25   ar
     8    25    26    1
     9    25    27   ar
    10    27    28   ar
    11     4     5    1
    12     5     6    1
    13     6     7    1
    14     7     8    1
    15     8     9   ar
    16     9    10   ar
    17    10    16    1
    18    16    17   ar
    19    17    18   ar
    20    18    19   ar
    21    19    20   ar
    22    20    21   ar
    23    10    11   ar
    24    11    12   ar
    25    12    13    2
    26    12    14   ar
    27    14    15    1
    28     7     2    1
    29    14     8   ar
    30    28    22   ar
    31    21    16   ar
@<TRIPOS>MOLECULE
*****
 28 31 0 0 0
SMALL
GASTEIGER

@<TRIPOS>ATOM
      1 C          63.2156   91.4331   10.3471 C.3     1  UNL1        0.0233
      2 C          63.7623   90.9047   11.6402 C.3     1  UNL1        0.0953
      3 C          64.8793   91.6272   12.3331 C.3     1  UNL1        0.1106
      4 N          65.4260   91.0988   13.6261 N.pl3   1  UNL1       -0.3041
      5 C          64.8557   89.8480   14.2262 C.3     1  UNL1        0.1123
      6 C          63.7386   89.1256   13.5333 C.3     1  UNL1        0.1149
      7 N          63.1919   89.6539   12.2403 N.pl3   1  UNL1       -0.2777
      8 C          62.0748   88.9314   11.5473 C.ar    1  UNL1        0.2035
      9 N          62.3783   87.9722   10.4347 N.ar    1  UNL1       -0.2133
     10 C          61.2612   87.2497    9.7418 C.ar    1  UNL1        0.1065
     11 C          59.8407   87.4864   10.1614 C.ar    1  UNL1        0.0815
     12 C          59.5372   88.4456   11.2740 C.ar    1  UNL1        0.2646
     13 O          58.1167   88.6823   11.6937 O.2     1  UNL1       -0.2668
     14 N          60.6543   89.1681   11.9670 N.ar    1  UNL1       -0.2667
     15 C          60.3509   90.1273   13.0796 C.3     1  UNL1        0.1363
     16 C          61.5647   86.2905    8.6292 C.ar    1  UNL1        0.1024
     17 C          62.9203   85.6553    8.5354 C.ar    1  UNL1        0.0414
     18 C          63.2237   84.6961    7.4229 C.ar    1  UNL1        0.1023
     19 N          62.1716   84.3721    6.4040 N.ar    1  UNL1       -0.2224
     20 C          60.8159   85.0074    6.4977 C.ar    1  UNL1        0.1989
     21 N          60.5125   85.9666    7.6103 N.ar    1  UNL1       -0.2224
     22 C          66.5431   91.8213   14.3191 C.ar    1  UNL1        0.0481
     23 C          67.9099   91.8568   13.7021 C.ar    1  UNL1        0.0168
     24 C          69.0270   92.5793   14.3950 C.ar    1  UNL1        0.0309
     25 C          68.7774   93.2663   15.7049 C.ar    1  UNL1        0.1402
     26 F          69.8944   93.9888   16.3978 F       1  UNL1       -0.2042
     27 C          67.4106   93.2308   16.3219 C.ar    1  UNL1        0.0309
     28 C          66.2935   92.5083   15.6289 C.ar    1  UNL1        0.0168
@<TRIPOS>BOND
     1     2     1    1
     2     2     3    1
     3     3     4    1
     4     4    22    1
     5    22    23   ar
     6    23    24   ar
     7    24    25   ar
     8    25    26    1
     9    25    27   ar
    10    27    28   ar
    11     4     5    1
    12     5     6    1
    13     6     7    1
    14     7     8    1
    15     8     9   ar
    16     9    10   ar
    17    10    16    1
    18    16    17   ar
    19    17    18   ar
    20    18    19   ar
    21    19    20   ar
    22    20    21   ar
    23    10    11   ar
    24    11    12   ar
    25    12    13    2
    26    12    14   ar
    27    14    15    1
    28     7     2    1
    29    14     8   ar
    30    28    22   ar
    31    21    16   ar
@<TRIPOS>MOLECULE
*****
 28 31 0 0 0
SMALL
GASTEIGER

@<TRIPOS>ATOM
      1 C          57.8441   92.1972   -3.4774 C.3     1  UNL1        0.0233
      2 C          57.4010   93.6253   -3.3575 C.3     1  UNL1        0.0953
      3 C          55.9546   93.9794   -3.5379 C.3     1  UNL1        0.1106
      4 N          55.5115   95.4074   -3.4180 N.pl3   1  UNL1       -0.3041
      5 C          56.5148   96.4813   -3.1178 C.3     1  UNL1        0.1123
      6 C          57.9611   96.1272   -2.9375 C.3     1  UNL1        0.1149
      7 N          58.4042   94.6992   -3.0574 N.pl3   1  UNL1       -0.2777
      8 C          59.8507   94.3451   -2.8770 C.ar    1  UNL1        0.2035
      9 N          60.3788   94.0207   -1.5110 N.ar    1  UNL1       -0.2133
     10 C          61.8251   93.6667   -1.3306 C.ar    1  UNL1        0.1065
     11 C          62.7435   93.6369   -2.5163 C.ar    1  UNL1        0.0815
     12 C          62.2155   93.9612   -3.8823 C.ar    1  UNL1        0.2646
     13 O          63.1338   93.9314   -5.0679 O.2     1  UNL1       -0.2668
     14 N          60.7690   94.3153   -4.0626 N.ar    1  UNL1       -0.2667
     15 C          60.2410   94.6396   -5.4286 C.3     1  UNL1        0.1363
     16 C          62.3532   93.3423    0.0354 C.ar    1  UNL1        0.1024
     17 C          61.4644   92.6783    1.0449 C.ar    1  UNL1        0.0414
     18 C          61.9924   92.3540    2.4109 C.ar    1  UNL1        0.1023
     19 N          63.4093   92.6937    2.7674 N.ar    1  UNL1       -0.2224
     20 C          64.2981   93.3577    1.7579 C.ar    1  UNL1        0.1989
     21 N          63.7701   93.6820    0.3919 N.ar    1  UNL1       -0.2224
     22 C          54.0651   95.7615   -3.5984 C.ar    1  UNL1        0.0481
     23 C          53.1497   95.8044   -2.4108 C.ar    1  UNL1        0.0168
     24 C          51.7033   96.1585   -2.5911 C.ar    1  UNL1        0.0309
     25 C          51.1722   96.4697   -3.9590 C.ar    1  UNL1        0.1402
     26 F          49.7258   96.8238   -4.1393 F       1  UNL1       -0.2042
     27 C          52.0875   96.4268   -5.1466 C.ar    1  UNL1        0.0309
     28 C          53.5340   96.0727   -4.9662 C.ar    1  UNL1        0.0168
@<TRIPOS>BOND
     1     2     1    1
     2     2     3    1
     3     3     4    1
     4     4    22    1
     5    22    23   ar
     6    23    24   ar
     7    24    25   ar
     8    25    26    1
     9    25    27   ar
    10    27    28   ar
    11     4     5    1
    12     5     6    1
    13     6     7    1
    14     7     8    1
    15     8     9   ar
    16     9    10   ar
    17    10    16    1
    18    16    17   ar
    19    17    18   ar
    20    18    19   ar
    21    19    20   ar
    22    20    21   ar
    23    10    11   ar
    24    11    12   ar
    25    12    13    2
    26    12    14   ar
    27    14    15    1
    28     7     2    1
    29    14     8   ar
    30    28    22   ar
    31    21    16   ar
