@<TRIPOS>MOLECULE
*****
 39 41 0 0 0
SMALL
GASTEIGER

@<TRIPOS>ATOM
      1 N          62.9595   89.1068   11.2118 N.am    1  UNL1       -0.2927
      2 C          61.4835   88.8740   11.0804 C.2     1  UNL1        0.2508
      3 O          60.5341   89.5136   12.0497 O.2     1  UNL1       -0.2700
      4 H          63.5826   88.6870   10.5756 H       1  UNL1        0.1502
      5 C          60.9568   88.0017    9.9795 C.ar    1  UNL1        0.1068
      6 C          59.7490   88.4271    9.1984 C.ar    1  UNL1        0.0108
      7 C          59.2224   87.5549    8.0976 C.ar    1  UNL1        0.0210
      8 C          59.9035   86.2573    7.7779 C.ar    1  UNL1        0.1021
      9 N          61.1114   85.8319    8.5591 N.ar    1  UNL1       -0.2097
     10 C          61.6380   86.7042    9.6599 C.ar    1  UNL1        0.2340
     11 O          62.8459   86.2788   10.4410 O.3     1  UNL1       -0.4351
     12 C          62.8388   84.9747   11.1820 C.ar    1  UNL1        0.1576
     13 C          62.3427   84.9184   12.5965 C.ar    1  UNL1        0.0384
     14 C          62.3356   83.6142   13.3375 C.ar    1  UNL1        0.0070
     15 C          62.8247   82.3663   12.6640 C.ar    1  UNL1        0.0725
     16 C          63.3208   82.4225   11.2496 C.ar    1  UNL1        0.0183
     17 C          63.3279   83.7267   10.5085 C.ar    1  UNL1        0.0921
     18 CL         63.8240   83.7830    9.0941 Cl      1  UNL1       -0.0791
     19 C          62.8176   81.0621   13.4050 C.3     1  UNL1        0.4186
     20 F          62.8106   79.7579   14.1460 F       1  UNL1       -0.1659
     21 F          64.3174   81.0678   13.4291 F       1  UNL1       -0.1659
     22 F          61.3179   81.0565   13.3808 F       1  UNL1       -0.1659
     23 C          63.4861   89.9791   12.3127 C.3     1  UNL1        0.1789
     24 C          68.1379   93.7237   15.7169 C.3     1  UNL1        0.0897
     25 N          67.1307   93.1188   14.7844 N.3     1  UNL1       -0.2686
     26 C          66.7465   93.8388   13.5259 C.3     1  UNL1        0.0939
     27 C          65.7393   93.2339   12.5933 C.3     1  UNL1        0.1108
     28 N          65.1163   91.9089   12.9193 N.am    1  UNL1       -0.2753
     29 C          64.1091   91.3040   11.9867 C.2     1  UNL1        0.2462
     30 O          63.7249   92.0241   10.7282 O.2     1  UNL1       -0.2730
     31 C          65.5005   91.1889   14.1778 C.3     1  UNL1        0.1108
     32 C          66.5077   91.7938   15.1103 C.3     1  UNL1        0.0939
     33 C          63.3897   89.5263   13.7395 C.3     1  UNL1        0.1710
     34 O          63.5265   88.0708   14.0754 O.3     1  UNL1       -0.3515
     35 C          64.2360   87.6540   15.3295 C.3     1  UNL1        0.1421
     36 C          63.4674   87.0190   16.4503 C.3     1  UNL1        0.0274
     37 C          63.0702   88.3773   16.9474 C.3     1  UNL1        0.0025
     38 C          63.8647   85.6607   15.9531 C.3     1  UNL1        0.0025
     39 C          62.6989   86.3839   17.5710 C.3     1  UNL1        0.0025
@<TRIPOS>BOND
     1    24    25    1
     2    25    26    1
     3    26    27    1
     4    27    28    1
     5    28    29   am
     6    29    30    2
     7    29    23    1
     8    23    33    1
     9    33    34    1
    10    34    35    1
    11    35    36    1
    12    36    37    1
    13    36    38    1
    14    36    39    1
    15    23     1    1
    16     1     2   am
    17     2     3    2
    18     2     5    1
    19     5     6   ar
    20     6     7   ar
    21     7     8   ar
    22     8     9   ar
    23     9    10   ar
    24    10    11    1
    25    11    12    1
    26    12    13   ar
    27    13    14   ar
    28    14    15   ar
    29    15    19    1
    30    19    20    1
    31    19    21    1
    32    19    22    1
    33    15    16   ar
    34    16    17   ar
    35    17    18    1
    36    28    31    1
    37    31    32    1
    38    32    25    1
    39    10     5   ar
    40    17    12   ar
    41     1     4    1
@<TRIPOS>MOLECULE
*****
 39 41 0 0 0
SMALL
GASTEIGER

@<TRIPOS>ATOM
      1 N          62.8736   89.6934   10.5365 N.am    1  UNL1       -0.2927
      2 C          61.4019   89.6375   10.2522 C.2     1  UNL1        0.2508
      3 O          60.4898   90.6895   10.8102 O.2     1  UNL1       -0.2700
      4 H          63.4723   89.0029   10.1703 H       1  UNL1        0.1502
      5 C          60.8422   88.5295    9.4100 C.ar    1  UNL1        0.1068
      6 C          59.7165   88.8064    8.4581 C.ar    1  UNL1        0.0108
      7 C          59.1568   87.6985    7.6159 C.ar    1  UNL1        0.0210
      8 C          59.7228   86.3138    7.7257 C.ar    1  UNL1        0.1021
      9 N          60.8485   86.0369    8.6776 N.ar    1  UNL1       -0.2097
     10 C          61.4082   87.1448    9.5198 C.ar    1  UNL1        0.2340
     11 O          62.5339   86.8679   10.4717 O.3     1  UNL1       -0.4351
     12 C          62.6582   85.5181   11.1139 C.ar    1  UNL1        0.1576
     13 C          62.2695   85.3325   12.5508 C.ar    1  UNL1        0.0384
     14 C          62.3937   83.9827   13.1931 C.ar    1  UNL1        0.0070
     15 C          62.9067   82.8184   12.3985 C.ar    1  UNL1        0.0725
     16 C          63.2954   83.0039   10.9617 C.ar    1  UNL1        0.0183
     17 C          63.1712   84.3538   10.3194 C.ar    1  UNL1        0.0921
     18 CL         63.5599   84.5394    8.8826 Cl      1  UNL1       -0.0791
     19 C          63.0310   81.4686   13.0407 C.3     1  UNL1        0.4186
     20 F          63.1553   80.1187   13.6830 F       1  UNL1       -0.1659
     21 F          61.5387   81.3939   13.1726 F       1  UNL1       -0.1659
     22 F          64.5233   81.5433   12.9089 F       1  UNL1       -0.1659
     23 C          63.4333   90.8013   11.3787 C.3     1  UNL1        0.1789
     24 C          67.7249   93.3997   16.0777 C.3     1  UNL1        0.0897
     25 N          66.6554   92.7182   15.2766 N.3     1  UNL1       -0.2686
     26 C          65.5996   91.9092   15.9699 C.3     1  UNL1        0.0939
     27 C          64.5301   91.2278   15.1688 C.3     1  UNL1        0.1108
     28 N          64.5165   91.3553   13.6743 N.am    1  UNL1       -0.2753
     29 C          63.4470   90.6738   12.8732 C.2     1  UNL1        0.2462
     30 O          62.3912   89.8648   13.5665 O.2     1  UNL1       -0.2730
     31 C          65.5723   92.1643   12.9810 C.3     1  UNL1        0.1108
     32 C          66.6418   92.8457   13.7821 C.3     1  UNL1        0.0939
     33 C          63.9793   92.0368   10.7263 C.3     1  UNL1        0.1710
     34 O          65.3654   92.0320   10.1529 O.3     1  UNL1       -0.3515
     35 C          66.1405   93.3124   10.0539 C.3     1  UNL1        0.1421
     36 C          67.5591   93.2946    9.5667 C.3     1  UNL1        0.0274
     37 C          67.3490   94.6250    8.9066 C.3     1  UNL1        0.0025
     38 C          67.7691   91.9642   10.2269 C.3     1  UNL1        0.0025
     39 C          68.9777   93.2768    9.0796 C.3     1  UNL1        0.0025
@<TRIPOS>BOND
     1    24    25    1
     2    25    26    1
     3    26    27    1
     4    27    28    1
     5    28    29   am
     6    29    30    2
     7    29    23    1
     8    23    33    1
     9    33    34    1
    10    34    35    1
    11    35    36    1
    12    36    37    1
    13    36    38    1
    14    36    39    1
    15    23     1    1
    16     1     2   am
    17     2     3    2
    18     2     5    1
    19     5     6   ar
    20     6     7   ar
    21     7     8   ar
    22     8     9   ar
    23     9    10   ar
    24    10    11    1
    25    11    12    1
    26    12    13   ar
    27    13    14   ar
    28    14    15   ar
    29    15    19    1
    30    19    20    1
    31    19    21    1
    32    19    22    1
    33    15    16   ar
    34    16    17   ar
    35    17    18    1
    36    28    31    1
    37    31    32    1
    38    32    25    1
    39    10     5   ar
    40    17    12   ar
    41     1     4    1
@<TRIPOS>MOLECULE
*****
 39 41 0 0 0
SMALL
GASTEIGER

@<TRIPOS>ATOM
      1 N          62.1562   85.2402   12.2936 N.am    1  UNL1       -0.2927
      2 C          62.3736   86.6618   11.8675 C.2     1  UNL1        0.2508
      3 O          63.4796   87.4680   12.4815 O.2     1  UNL1       -0.2700
      4 H          61.4303   84.7111   11.8906 H       1  UNL1        0.1502
      5 C          61.4851   87.2774   10.8274 C.ar    1  UNL1        0.1068
      6 C          60.9534   86.4383    9.7035 C.ar    1  UNL1        0.0108
      7 C          60.0649   87.0538    8.6634 C.ar    1  UNL1        0.0210
      8 C          59.7082   88.5083    8.7473 C.ar    1  UNL1        0.1021
      9 N          60.2398   89.3473    9.8713 N.ar    1  UNL1       -0.2097
     10 C          61.1283   88.7319   10.9114 C.ar    1  UNL1        0.2340
     11 O          61.6600   89.5709   12.0353 O.3     1  UNL1       -0.4351
     12 C          62.7908   90.5251   11.7890 C.ar    1  UNL1        0.1576
     13 C          63.0359   91.0573   10.4082 C.ar    1  UNL1        0.0384
     14 C          64.1667   92.0114   10.1619 C.ar    1  UNL1        0.0070
     15 C          65.0526   92.4335   11.2964 C.ar    1  UNL1        0.0725
     16 C          64.8076   91.9013   12.6772 C.ar    1  UNL1        0.0183
     17 C          63.6767   90.9471   12.9236 C.ar    1  UNL1        0.0921
     18 CL         63.4317   90.4150   14.3044 Cl      1  UNL1       -0.0791
     19 C          66.1834   93.3876   11.0501 C.3     1  UNL1        0.4186
     20 F          67.3143   94.3419   10.8038 F       1  UNL1       -0.1659
     21 F          65.2070   94.4219   10.5738 F       1  UNL1       -0.1659
     22 F          67.1598   92.3534   11.5264 F       1  UNL1       -0.1659
     23 C          63.0447   84.6246   13.3337 C.3     1  UNL1        0.1789
     24 C          62.8542   78.4585   10.3018 C.3     1  UNL1        0.0897
     25 N          62.8215   79.6608   11.1981 N.3     1  UNL1       -0.2686
     26 C          62.4676   79.5065   12.6475 C.3     1  UNL1        0.0939
     27 C          62.4349   80.7088   13.5437 C.3     1  UNL1        0.1108
     28 N          62.7561   82.0655   12.9906 N.am    1  UNL1       -0.2753
     29 C          62.7234   83.2679   13.8868 C.2     1  UNL1        0.2462
     30 O          62.3695   83.1135   15.3363 O.2     1  UNL1       -0.2730
     31 C          63.1101   82.2199   11.5412 C.3     1  UNL1        0.1108
     32 C          63.1427   81.0176   10.6449 C.3     1  UNL1        0.0939
     33 C          64.2544   85.3659   13.8206 C.3     1  UNL1        0.1710
     34 O          64.3612   85.7615   15.2635 O.3     1  UNL1       -0.3515
     35 C          63.6786   87.0044   15.7529 C.3     1  UNL1        0.1421
     36 C          63.1082   87.0503   17.1394 C.3     1  UNL1        0.0274
     37 C          63.0994   88.5493   17.0861 C.3     1  UNL1        0.0025
     38 C          63.1170   85.5513   17.1927 C.3     1  UNL1        0.0025
     39 C          62.5377   87.0962   18.5260 C.3     1  UNL1        0.0025
@<TRIPOS>BOND
     1    24    25    1
     2    25    26    1
     3    26    27    1
     4    27    28    1
     5    28    29   am
     6    29    30    2
     7    29    23    1
     8    23    33    1
     9    33    34    1
    10    34    35    1
    11    35    36    1
    12    36    37    1
    13    36    38    1
    14    36    39    1
    15    23     1    1
    16     1     2   am
    17     2     3    2
    18     2     5    1
    19     5     6   ar
    20     6     7   ar
    21     7     8   ar
    22     8     9   ar
    23     9    10   ar
    24    10    11    1
    25    11    12    1
    26    12    13   ar
    27    13    14   ar
    28    14    15   ar
    29    15    19    1
    30    19    20    1
    31    19    21    1
    32    19    22    1
    33    15    16   ar
    34    16    17   ar
    35    17    18    1
    36    28    31    1
    37    31    32    1
    38    32    25    1
    39    10     5   ar
    40    17    12   ar
    41     1     4    1
@<TRIPOS>MOLECULE
*****
 39 41 0 0 0
SMALL
GASTEIGER

@<TRIPOS>ATOM
      1 N          64.1173   88.9557   12.9496 N.am    1  UNL1       -0.2927
      2 C          63.8999   88.0829   14.1500 C.2     1  UNL1        0.2508
      3 O          63.5786   88.7010   15.4784 O.2     1  UNL1       -0.2700
      4 H          64.3282   88.5501   12.0777 H       1  UNL1        0.1502
      5 C          64.0038   86.5920   14.0219 C.ar    1  UNL1        0.1068
      6 C          64.8441   85.8129   14.9898 C.ar    1  UNL1        0.0108
      7 C          64.9480   84.3220   14.8618 C.ar    1  UNL1        0.0210
      8 C          64.2116   83.6102   13.7659 C.ar    1  UNL1        0.1021
      9 N          63.3713   84.3893   12.7980 N.ar    1  UNL1       -0.2097
     10 C          63.2674   85.8802   12.9260 C.ar    1  UNL1        0.2340
     11 O          62.4270   86.6593   11.9581 O.3     1  UNL1       -0.4351
     12 C          62.2449   86.1630   10.5544 C.ar    1  UNL1        0.1576
     13 C          63.2237   85.1874    9.9709 C.ar    1  UNL1        0.0384
     14 C          63.0415   84.6911    8.5672 C.ar    1  UNL1        0.0070
     15 C          61.8807   85.1703    7.7469 C.ar    1  UNL1        0.0725
     16 C          60.9020   86.1458    8.3303 C.ar    1  UNL1        0.0183
     17 C          61.0841   86.6422    9.7341 C.ar    1  UNL1        0.0921
     18 CL         60.1054   87.6177   10.3176 Cl      1  UNL1       -0.0791
     19 C          61.6986   84.6739    6.3432 C.3     1  UNL1        0.4186
     20 F          61.5164   84.1776    4.9394 F       1  UNL1       -0.1659
     21 F          60.2099   84.7579    6.5067 F       1  UNL1       -0.1659
     22 F          63.1873   84.5900    6.1798 F       1  UNL1       -0.1659
     23 C          64.0134   90.4467   13.0776 C.3     1  UNL1        0.1789
     24 C          69.6879   93.3789   15.6178 C.3     1  UNL1        0.0897
     25 N          68.3335   92.8106   15.3134 N.3     1  UNL1       -0.2686
     26 C          67.2360   92.9011   16.3319 C.3     1  UNL1        0.0939
     27 C          65.8816   92.3328   16.0276 C.3     1  UNL1        0.1108
     28 N          65.6247   91.6739   14.7048 N.am    1  UNL1       -0.2753
     29 C          64.2703   91.1056   14.4004 C.2     1  UNL1        0.2462
     30 O          63.1728   91.1961   15.4189 O.2     1  UNL1       -0.2730
     31 C          66.7222   91.5834   13.6863 C.3     1  UNL1        0.1108
     32 C          68.0766   92.1517   13.9906 C.3     1  UNL1        0.0939
     33 C          63.6526   91.2787   11.8828 C.3     1  UNL1        0.1710
     34 O          64.7318   91.8248   10.9956 O.3     1  UNL1       -0.3515
     35 C          65.3062   93.1844   11.2632 C.3     1  UNL1        0.1421
     36 C          66.3594   93.7457   10.3545 C.3     1  UNL1        0.0274
     37 C          65.7146   95.0972   10.4420 C.3     1  UNL1        0.0025
     38 C          67.0043   92.3942   10.2671 C.3     1  UNL1        0.0025
     39 C          67.4127   94.3070    9.4459 C.3     1  UNL1        0.0025
@<TRIPOS>BOND
     1    24    25    1
     2    25    26    1
     3    26    27    1
     4    27    28    1
     5    28    29   am
     6    29    30    2
     7    29    23    1
     8    23    33    1
     9    33    34    1
    10    34    35    1
    11    35    36    1
    12    36    37    1
    13    36    38    1
    14    36    39    1
    15    23     1    1
    16     1     2   am
    17     2     3    2
    18     2     5    1
    19     5     6   ar
    20     6     7   ar
    21     7     8   ar
    22     8     9   ar
    23     9    10   ar
    24    10    11    1
    25    11    12    1
    26    12    13   ar
    27    13    14   ar
    28    14    15   ar
    29    15    19    1
    30    19    20    1
    31    19    21    1
    32    19    22    1
    33    15    16   ar
    34    16    17   ar
    35    17    18    1
    36    28    31    1
    37    31    32    1
    38    32    25    1
    39    10     5   ar
    40    17    12   ar
    41     1     4    1
@<TRIPOS>MOLECULE
*****
 39 41 0 0 0
SMALL
GASTEIGER

@<TRIPOS>ATOM
      1 N          63.3263   85.0090   13.0308 N.am    1  UNL1       -0.2927
      2 C          64.2229   85.3275   14.1904 C.2     1  UNL1        0.2508
      3 O          65.5933   84.7223   14.2671 O.2     1  UNL1       -0.2700
      4 H          62.4269   85.4063   12.9805 H       1  UNL1        0.1502
      5 C          63.7493   86.2512   15.2732 C.ar    1  UNL1        0.1068
      6 C          63.4959   85.7212   16.6534 C.ar    1  UNL1        0.0108
      7 C          63.0223   86.6448   17.7362 C.ar    1  UNL1        0.0210
      8 C          62.8020   88.0984   17.4388 C.ar    1  UNL1        0.1021
      9 N          63.0553   88.6284   16.0587 N.ar    1  UNL1       -0.2097
     10 C          63.5290   87.7048   14.9758 C.ar    1  UNL1        0.2340
     11 O          63.7823   88.2348   13.5956 O.3     1  UNL1       -0.4351
     12 C          64.3279   89.6200   13.4126 C.ar    1  UNL1        0.1576
     13 C          65.2745   90.1932   14.4252 C.ar    1  UNL1        0.0384
     14 C          65.8201   91.5783   14.2422 C.ar    1  UNL1        0.0070
     15 C          65.4190   92.3904   13.0465 C.ar    1  UNL1        0.0725
     16 C          64.4724   91.8173   12.0339 C.ar    1  UNL1        0.0183
     17 C          63.9268   90.4321   12.2169 C.ar    1  UNL1        0.0921
     18 CL         62.9802   89.8589   11.2043 Cl      1  UNL1       -0.0791
     19 C          65.9646   93.7756   12.8634 C.3     1  UNL1        0.4186
     20 F          66.5101   95.1609   12.6804 F       1  UNL1       -0.1659
     21 F          66.3188   93.8286   14.3200 F       1  UNL1       -0.1659
     22 F          65.6103   93.7227   11.4069 F       1  UNL1       -0.1659
     23 C          63.8000   84.0853   11.9480 C.3     1  UNL1        0.1789
     24 C          59.5726   88.7597    9.2040 C.3     1  UNL1        0.0897
     25 N          60.5309   87.6538    9.5336 N.3     1  UNL1       -0.2686
     26 C          61.0952   86.7988    8.4379 C.3     1  UNL1        0.0939
     27 C          62.0535   85.6930    8.7676 C.3     1  UNL1        0.1108
     28 N          62.4476   85.4421   10.1930 N.am    1  UNL1       -0.2753
     29 C          63.4059   84.3362   10.5226 C.2     1  UNL1        0.2462
     30 O          63.9702   83.4813    9.4269 O.2     1  UNL1       -0.2730
     31 C          61.8833   86.2970   11.2887 C.3     1  UNL1        0.1108
     32 C          60.9250   87.4029   10.9590 C.3     1  UNL1        0.0939
     33 C          64.6677   82.9107   12.2906 C.3     1  UNL1        0.1710
     34 O          64.0561   81.5523   12.4659 O.3     1  UNL1       -0.3515
     35 C          63.4960   81.1481   13.7974 C.3     1  UNL1        0.1421
     36 C          62.0195   80.9373   13.9572 C.3     1  UNL1        0.0274
     37 C          62.1319   79.6173   13.2537 C.3     1  UNL1        0.0025
     38 C          61.9072   82.2573   14.6607 C.3     1  UNL1        0.0025
     39 C          60.5430   80.7265   14.1170 C.3     1  UNL1        0.0025
@<TRIPOS>BOND
     1    24    25    1
     2    25    26    1
     3    26    27    1
     4    27    28    1
     5    28    29   am
     6    29    30    2
     7    29    23    1
     8    23    33    1
     9    33    34    1
    10    34    35    1
    11    35    36    1
    12    36    37    1
    13    36    38    1
    14    36    39    1
    15    23     1    1
    16     1     2   am
    17     2     3    2
    18     2     5    1
    19     5     6   ar
    20     6     7   ar
    21     7     8   ar
    22     8     9   ar
    23     9    10   ar
    24    10    11    1
    25    11    12    1
    26    12    13   ar
    27    13    14   ar
    28    14    15   ar
    29    15    19    1
    30    19    20    1
    31    19    21    1
    32    19    22    1
    33    15    16   ar
    34    16    17   ar
    35    17    18    1
    36    28    31    1
    37    31    32    1
    38    32    25    1
    39    10     5   ar
    40    17    12   ar
    41     1     4    1
@<TRIPOS>MOLECULE
*****
 39 41 0 0 0
SMALL
GASTEIGER

@<TRIPOS>ATOM
      1 N          63.6596   89.9862   12.1507 N.am    1  UNL1       -0.2927
      2 C          62.1929   89.6723   12.1676 C.2     1  UNL1        0.2508
      3 O          61.3540   90.0718   13.3451 O.2     1  UNL1       -0.2700
      4 H          64.2102   89.7239   11.3778 H       1  UNL1        0.1502
      5 C          61.5651   88.9588   11.0070 C.ar    1  UNL1        0.1068
      6 C          60.6275   89.6919   10.0942 C.ar    1  UNL1        0.0108
      7 C          59.9997   88.9785    8.9336 C.ar    1  UNL1        0.0210
      8 C          60.3096   87.5319    8.6860 C.ar    1  UNL1        0.1021
      9 N          61.2473   86.7988    9.5988 N.ar    1  UNL1       -0.2097
     10 C          61.8750   87.5122   10.7593 C.ar    1  UNL1        0.2340
     11 O          62.8127   86.7791   11.6722 O.3     1  UNL1       -0.4351
     12 C          62.7819   85.2806   11.7328 C.ar    1  UNL1        0.1576
     13 C          62.4382   84.5889   13.0187 C.ar    1  UNL1        0.0384
     14 C          62.4074   83.0905   13.0794 C.ar    1  UNL1        0.0070
     15 C          62.7203   82.2837   11.8542 C.ar    1  UNL1        0.0725
     16 C          63.0640   82.9753   10.5683 C.ar    1  UNL1        0.0183
     17 C          63.0948   84.4738   10.5076 C.ar    1  UNL1        0.0921
     18 CL         63.4385   85.1655    9.2217 Cl      1  UNL1       -0.0791
     19 C          62.6894   80.7853   11.9148 C.3     1  UNL1        0.4186
     20 F          62.6586   79.2868   11.9754 F       1  UNL1       -0.1659
     21 F          63.0164   80.7194   10.4524 F       1  UNL1       -0.1659
     22 F          62.3625   80.8512   13.3772 F       1  UNL1       -0.1659
     23 C          64.2874   90.6997   13.3112 C.3     1  UNL1        0.1789
     24 C          63.4921   84.8806   16.8828 C.3     1  UNL1        0.0897
     25 N          63.5635   86.2762   16.3376 N.3     1  UNL1       -0.2686
     26 C          63.1250   87.4350   17.1830 C.3     1  UNL1        0.0939
     27 C          63.1964   88.8306   16.6378 C.3     1  UNL1        0.1108
     28 N          63.7062   89.0673   15.2471 N.am    1  UNL1       -0.2753
     29 C          63.7776   90.4629   14.7019 C.2     1  UNL1        0.2462
     30 O          63.3391   91.6218   15.5474 O.2     1  UNL1       -0.2730
     31 C          64.1446   87.9085   14.4017 C.3     1  UNL1        0.1108
     32 C          64.0733   86.5129   14.9469 C.3     1  UNL1        0.0939
     33 C          65.4249   91.6499   13.0811 C.3     1  UNL1        0.1710
     34 O          65.3227   92.6973   12.0122 O.3     1  UNL1       -0.3515
     35 C          66.0209   92.4998   10.6994 C.3     1  UNL1        0.1421
     36 C          66.8133   93.6210   10.0952 C.3     1  UNL1        0.0274
     37 C          65.7628   94.5987   10.5317 C.3     1  UNL1        0.0025
     38 C          67.8638   92.6434    9.6587 C.3     1  UNL1        0.0025
     39 C          67.6057   94.7422    9.4910 C.3     1  UNL1        0.0025
@<TRIPOS>BOND
     1    24    25    1
     2    25    26    1
     3    26    27    1
     4    27    28    1
     5    28    29   am
     6    29    30    2
     7    29    23    1
     8    23    33    1
     9    33    34    1
    10    34    35    1
    11    35    36    1
    12    36    37    1
    13    36    38    1
    14    36    39    1
    15    23     1    1
    16     1     2   am
    17     2     3    2
    18     2     5    1
    19     5     6   ar
    20     6     7   ar
    21     7     8   ar
    22     8     9   ar
    23     9    10   ar
    24    10    11    1
    25    11    12    1
    26    12    13   ar
    27    13    14   ar
    28    14    15   ar
    29    15    19    1
    30    19    20    1
    31    19    21    1
    32    19    22    1
    33    15    16   ar
    34    16    17   ar
    35    17    18    1
    36    28    31    1
    37    31    32    1
    38    32    25    1
    39    10     5   ar
    40    17    12   ar
    41     1     4    1
@<TRIPOS>MOLECULE
*****
 39 41 0 0 0
SMALL
GASTEIGER

@<TRIPOS>ATOM
      1 N          63.1247   89.6281   13.8452 N.am    1  UNL1       -0.2927
      2 C          64.0925   88.8836   14.7164 C.2     1  UNL1        0.2508
      3 O          65.5605   89.1788   14.6293 O.2     1  UNL1       -0.2700
      4 H          62.1612   89.4343   13.9024 H       1  UNL1        0.1502
      5 C          63.5922   87.8438   15.6749 C.ar    1  UNL1        0.1068
      6 C          63.0793   88.2522   17.0240 C.ar    1  UNL1        0.0108
      7 C          62.5790   87.2124   17.9824 C.ar    1  UNL1        0.0210
      8 C          62.5916   85.7643   17.5917 C.ar    1  UNL1        0.1021
      9 N          63.1045   85.3559   16.2426 N.ar    1  UNL1       -0.2097
     10 C          63.6048   86.3956   15.2841 C.ar    1  UNL1        0.2340
     11 O          64.1176   85.9872   13.9350 O.3     1  UNL1       -0.4351
     12 C          63.8176   84.6178   13.4017 C.ar    1  UNL1        0.1576
     13 C          64.5794   83.4306   13.9121 C.ar    1  UNL1        0.0384
     14 C          64.2794   82.0611   13.3787 C.ar    1  UNL1        0.0070
     15 C          63.2177   81.8787   12.3350 C.ar    1  UNL1        0.0725
     16 C          62.4559   83.0658   11.8246 C.ar    1  UNL1        0.0183
     17 C          62.7559   84.4353   12.3579 C.ar    1  UNL1        0.0921
     18 CL         61.9941   85.6224   11.8475 Cl      1  UNL1       -0.0791
     19 C          62.9177   80.5092   11.8016 C.3     1  UNL1        0.4186
     20 F          62.6177   79.1397   11.2683 F       1  UNL1       -0.1659
     21 F          62.7104   80.0098   13.2007 F       1  UNL1       -0.1659
     22 F          63.1250   81.0087   10.4025 F       1  UNL1       -0.1659
     23 C          63.6250   90.6679   12.8867 C.3     1  UNL1        0.1789
     24 C          67.5453   95.1710    9.4803 C.3     1  UNL1        0.0897
     25 N          66.7804   94.3263   10.4557 N.3     1  UNL1       -0.2686
     26 C          66.8761   94.6058   11.9262 C.3     1  UNL1        0.0939
     27 C          66.1112   93.7611   12.9016 C.3     1  UNL1        0.1108
     28 N          65.2506   92.6369   12.4065 N.am    1  UNL1       -0.2753
     29 C          64.4857   91.7922   13.3819 C.2     1  UNL1        0.2462
     30 O          64.5814   92.0718   14.8525 O.2     1  UNL1       -0.2730
     31 C          65.1548   92.3573   10.9359 C.3     1  UNL1        0.1108
     32 C          65.9197   93.2020    9.9605 C.3     1  UNL1        0.0939
     33 C          63.2646   90.5834   11.4331 C.3     1  UNL1        0.1710
     34 O          62.0318   89.8419   11.0079 O.3     1  UNL1       -0.3515
     35 C          62.1429   88.6811   10.0644 C.3     1  UNL1        0.1421
     36 C          60.9480   88.2429    9.2707 C.3     1  UNL1        0.0274
     37 C          61.6616   86.9782    8.8947 C.3     1  UNL1        0.0025
     38 C          60.2344   89.5075    9.6467 C.3     1  UNL1        0.0025
     39 C          59.7530   87.8046    8.4769 C.3     1  UNL1        0.0025
@<TRIPOS>BOND
     1    24    25    1
     2    25    26    1
     3    26    27    1
     4    27    28    1
     5    28    29   am
     6    29    30    2
     7    29    23    1
     8    23    33    1
     9    33    34    1
    10    34    35    1
    11    35    36    1
    12    36    37    1
    13    36    38    1
    14    36    39    1
    15    23     1    1
    16     1     2   am
    17     2     3    2
    18     2     5    1
    19     5     6   ar
    20     6     7   ar
    21     7     8   ar
    22     8     9   ar
    23     9    10   ar
    24    10    11    1
    25    11    12    1
    26    12    13   ar
    27    13    14   ar
    28    14    15   ar
    29    15    19    1
    30    19    20    1
    31    19    21    1
    32    19    22    1
    33    15    16   ar
    34    16    17   ar
    35    17    18    1
    36    28    31    1
    37    31    32    1
    38    32    25    1
    39    10     5   ar
    40    17    12   ar
    41     1     4    1
@<TRIPOS>MOLECULE
*****
 39 41 0 0 0
SMALL
GASTEIGER

@<TRIPOS>ATOM
      1 N          63.5184   89.6845   11.7628 N.am    1  UNL1       -0.2927
      2 C          62.0495   89.3840   11.8051 C.2     1  UNL1        0.2508
      3 O          61.2004   89.9456   12.9068 O.2     1  UNL1       -0.2700
      4 H          64.0757   89.3159   11.0397 H       1  UNL1        0.1502
      5 C          61.4295   88.5218   10.7456 C.ar    1  UNL1        0.1068
      6 C          60.4012   89.0971    9.8174 C.ar    1  UNL1        0.0108
      7 C          59.7812   88.2351    8.7579 C.ar    1  UNL1        0.0210
      8 C          60.1896   86.7978    8.6267 C.ar    1  UNL1        0.1021
      9 N          61.2179   86.2225    9.5549 N.ar    1  UNL1       -0.2097
     10 C          61.8379   87.0845   10.6143 C.ar    1  UNL1        0.2340
     11 O          62.8662   86.5092   11.5425 O.3     1  UNL1       -0.4351
     12 C          62.7615   85.0797   11.9845 C.ar    1  UNL1        0.1576
     13 C          62.2628   84.7549   13.3614 C.ar    1  UNL1        0.0384
     14 C          62.1581   83.3253   13.8033 C.ar    1  UNL1        0.0070
     15 C          62.5522   82.2205   12.8684 C.ar    1  UNL1        0.0725
     16 C          63.0509   82.5452   11.4916 C.ar    1  UNL1        0.0183
     17 C          63.1556   83.9748   11.0496 C.ar    1  UNL1        0.0921
     18 CL         63.6543   84.2996    9.6727 Cl      1  UNL1       -0.0791
     19 C          62.4475   80.7909   13.3104 C.3     1  UNL1        0.4186
     20 F          62.3429   79.3613   13.7523 F       1  UNL1       -0.1659
     21 F          63.9338   80.6404   13.1755 F       1  UNL1       -0.1659
     22 F          60.9612   80.9414   13.4453 F       1  UNL1       -0.1659
     23 C          64.1384   90.5466   12.8223 C.3     1  UNL1        0.1789
     24 C          63.6276   85.1481   17.0467 C.3     1  UNL1        0.0897
     25 N          63.6359   86.4739   16.3452 N.3     1  UNL1       -0.2686
     26 C          63.1665   87.7048   17.0625 C.3     1  UNL1        0.0939
     27 C          63.1748   89.0307   16.3611 C.3     1  UNL1        0.1108
     28 N          63.6524   89.1257   14.9424 N.am    1  UNL1       -0.2753
     29 C          63.6607   90.4516   14.2410 C.2     1  UNL1        0.2462
     30 O          63.1913   91.6825   14.9583 O.2     1  UNL1       -0.2730
     31 C          64.1219   87.8948   14.2251 C.3     1  UNL1        0.1108
     32 C          64.1136   86.5689   14.9266 C.3     1  UNL1        0.0939
     33 C          65.2361   91.5037   12.4630 C.3     1  UNL1        0.1710
     34 O          65.9079   92.3108   13.5342 O.3     1  UNL1       -0.3515
     35 C          66.9124   91.6645   14.4415 C.3     1  UNL1        0.1421
     36 C          67.9339   92.5047   15.1490 C.3     1  UNL1        0.0274
     37 C          66.9399   92.8003   16.2328 C.3     1  UNL1        0.0025
     38 C          68.9278   92.2090   14.0653 C.3     1  UNL1        0.0025
     39 C          68.9554   93.3449   15.8566 C.3     1  UNL1        0.0025
@<TRIPOS>BOND
     1    24    25    1
     2    25    26    1
     3    26    27    1
     4    27    28    1
     5    28    29   am
     6    29    30    2
     7    29    23    1
     8    23    33    1
     9    33    34    1
    10    34    35    1
    11    35    36    1
    12    36    37    1
    13    36    38    1
    14    36    39    1
    15    23     1    1
    16     1     2   am
    17     2     3    2
    18     2     5    1
    19     5     6   ar
    20     6     7   ar
    21     7     8   ar
    22     8     9   ar
    23     9    10   ar
    24    10    11    1
    25    11    12    1
    26    12    13   ar
    27    13    14   ar
    28    14    15   ar
    29    15    19    1
    30    19    20    1
    31    19    21    1
    32    19    22    1
    33    15    16   ar
    34    16    17   ar
    35    17    18    1
    36    28    31    1
    37    31    32    1
    38    32    25    1
    39    10     5   ar
    40    17    12   ar
    41     1     4    1
@<TRIPOS>MOLECULE
*****
 39 41 0 0 0
SMALL
GASTEIGER

@<TRIPOS>ATOM
      1 N          63.4296   89.6084   13.4243 N.am    1  UNL1       -0.2927
      2 C          63.8641   89.5592   14.8591 C.2     1  UNL1        0.2508
      3 O          64.6801   90.6787   15.4344 O.2     1  UNL1       -0.2700
      4 H          62.8940   88.8737   13.0467 H       1  UNL1        0.1502
      5 C          63.4827   88.3906   15.7187 C.ar    1  UNL1        0.1068
      6 C          63.0655   88.6113   17.1425 C.ar    1  UNL1        0.0108
      7 C          62.6841   87.4428   18.0020 C.ar    1  UNL1        0.0210
      8 C          62.7198   86.0534   17.4378 C.ar    1  UNL1        0.1021
      9 N          63.1370   85.8326   16.0140 N.ar    1  UNL1       -0.2097
     10 C          63.5184   87.0012   15.1544 C.ar    1  UNL1        0.2340
     11 O          63.9356   86.7804   13.7306 O.3     1  UNL1       -0.4351
     12 C          63.7324   85.4400   13.0888 C.ar    1  UNL1        0.1576
     13 C          62.6366   85.2487   12.0824 C.ar    1  UNL1        0.0384
     14 C          62.4334   83.9083   11.4406 C.ar    1  UNL1        0.0070
     15 C          63.3260   82.7592   11.8051 C.ar    1  UNL1        0.0725
     16 C          64.4218   82.9505   12.8114 C.ar    1  UNL1        0.0183
     17 C          64.6250   84.2909   13.4533 C.ar    1  UNL1        0.0921
     18 CL         65.7208   84.4822   14.4595 Cl      1  UNL1       -0.0791
     19 C          63.1228   81.4188   11.1633 C.3     1  UNL1        0.4186
     20 F          62.9196   80.0783   10.5214 F       1  UNL1       -0.1659
     21 F          62.2267   81.0125   12.2954 F       1  UNL1       -0.1659
     22 F          64.0190   81.8250   10.0311 F       1  UNL1       -0.1659
     23 C          63.8110   90.7771   12.5647 C.3     1  UNL1        0.1789
     24 C          59.1622   86.9659    9.2309 C.3     1  UNL1        0.0897
     25 N          60.1806   87.9528    9.7197 N.3     1  UNL1       -0.2686
     26 C          60.6237   89.0762    8.8300 C.3     1  UNL1        0.0939
     27 C          61.6421   90.0631    9.3188 C.3     1  UNL1        0.1108
     28 N          62.2174   89.9266   10.6973 N.am    1  UNL1       -0.2753
     29 C          63.2357   90.9135   11.1862 C.2     1  UNL1        0.2462
     30 O          63.6788   92.0369   10.2965 O.2     1  UNL1       -0.2730
     31 C          61.7743   88.8033   11.5871 C.3     1  UNL1        0.1108
     32 C          60.7559   87.8164   11.0982 C.3     1  UNL1        0.0939
     33 C          64.7677   91.8092   13.0837 C.3     1  UNL1        0.1710
     34 O          65.9890   92.1666   12.2894 O.3     1  UNL1       -0.3515
     35 C          66.2660   93.5997   11.9438 C.3     1  UNL1        0.1421
     36 C          66.8207   93.9523   10.5955 C.3     1  UNL1        0.0274
     37 C          66.4230   95.3832   10.8061 C.3     1  UNL1        0.0025
     38 C          67.2184   92.5214   10.3849 C.3     1  UNL1        0.0025
     39 C          67.3754   94.3049    9.2471 C.3     1  UNL1        0.0025
@<TRIPOS>BOND
     1    24    25    1
     2    25    26    1
     3    26    27    1
     4    27    28    1
     5    28    29   am
     6    29    30    2
     7    29    23    1
     8    23    33    1
     9    33    34    1
    10    34    35    1
    11    35    36    1
    12    36    37    1
    13    36    38    1
    14    36    39    1
    15    23     1    1
    16     1     2   am
    17     2     3    2
    18     2     5    1
    19     5     6   ar
    20     6     7   ar
    21     7     8   ar
    22     8     9   ar
    23     9    10   ar
    24    10    11    1
    25    11    12    1
    26    12    13   ar
    27    13    14   ar
    28    14    15   ar
    29    15    19    1
    30    19    20    1
    31    19    21    1
    32    19    22    1
    33    15    16   ar
    34    16    17   ar
    35    17    18    1
    36    28    31    1
    37    31    32    1
    38    32    25    1
    39    10     5   ar
    40    17    12   ar
    41     1     4    1
