@<TRIPOS>MOLECULE
*****
 32 35 0 0 0
SMALL
GASTEIGER

@<TRIPOS>ATOM
      1 C          61.2050   88.4744    9.9754 C.ar    1  UNL1        0.0951
      2 C          60.2862   88.3434    8.7970 C.ar    1  UNL1        0.1454
      3 F          59.3079   89.4364    8.4837 F       1  UNL1       -0.2040
      4 C          60.3456   87.1194    7.9320 C.ar    1  UNL1        0.0312
      5 C          61.3240   86.0263    8.2454 C.ar    1  UNL1        0.0204
      6 C          62.2428   86.1574    9.4238 C.ar    1  UNL1        0.0924
      7 C          62.1834   87.3814   10.2888 C.ar    1  UNL1        0.1598
      8 F          63.1022   87.5124   11.4672 F       1  UNL1       -0.2026
      9 C          61.1456   89.6984   10.8404 C.2     1  UNL1        0.2036
     10 O          59.8391   90.1340   11.4348 O.2     1  UNL1       -0.2863
     11 C          63.3887   89.7435   16.2955 C.3     1  UNL1        0.0307
     12 C          63.6893   90.3246   14.9457 C.2     1  UNL1        0.0074
     13 C          64.8883   91.2062   14.7589 C.2     1  UNL1        0.2278
     14 N          65.1890   91.7873   13.4091 N.2     1  UNL1       -0.0314
     15 C          64.2905   91.4869   12.2462 C.2     1  UNL1        0.3720
     16 N          64.3328   91.9134   10.8087 N.2     1  UNL1       -0.0307
     17 C          63.1598   91.2953   10.1071 C.2     1  UNL1        0.2390
     18 C          62.3926   90.4869   11.1110 C.2     1  UNL1        0.0896
     19 C          63.0915   90.6052   12.4330 C.2     1  UNL1        0.0771
     20 C          62.7909   90.0241   13.7828 C.3     1  UNL1        0.0602
     21 N          63.2211   85.0643    9.7372 N.pl3   1  UNL1       -0.2128
     22 H          64.0198   84.9424    9.1746 H       1  UNL1        0.1738
     23 S          62.9825   84.1571   10.9076 S.O2    1  UNL1        0.0737
     24 O          61.7335   84.9172   11.2423 O.2     1  UNL1       -0.1499
     25 O          64.2316   83.3970   10.5730 O.2     1  UNL1       -0.1499
     26 C          62.7440   83.2498   12.0782 C.ar    1  UNL1        0.1274
     27 C          62.6031   83.8250   13.4563 C.ar    1  UNL1        0.0203
     28 C          62.3646   82.9178   14.6268 C.ar    1  UNL1        0.0037
     29 C          62.2670   81.4354   14.4192 C.ar    1  UNL1        0.0297
     30 C          62.4079   80.8603   13.0410 C.ar    1  UNL1        0.1415
     31 F          62.3103   79.3779   12.8334 F       1  UNL1       -0.2041
     32 C          62.6464   81.7675   11.8705 C.ar    1  UNL1        0.0498
@<TRIPOS>BOND
     1    11    12    1
     2    12    13    2
     3    13    14    1
     4    14    15    2
     5    15    16    1
     6    16    17    2
     7    17    18    1
     8    18     9    1
     9     9    10    2
    10     9     1    1
    11     1     2   ar
    12     2     3    1
    13     2     4   ar
    14     4     5   ar
    15     5     6   ar
    16     6    21    1
    17    21    23    1
    18    23    24    2
    19    23    25    2
    20    23    26    1
    21    26    27   ar
    22    27    28   ar
    23    28    29   ar
    24    29    30   ar
    25    30    31    1
    26    30    32   ar
    27     6     7   ar
    28     7     8    1
    29    18    19    2
    30    19    20    1
    31    20    12    1
    32    19    15    1
    33     7     1   ar
    34    32    26   ar
    35    21    22    1
@<TRIPOS>MOLECULE
*****
 32 35 0 0 0
SMALL
GASTEIGER

@<TRIPOS>ATOM
      1 C          61.8833   86.4027   10.2566 C.ar    1  UNL1        0.0951
      2 C          60.8302   86.5204    9.1950 C.ar    1  UNL1        0.1454
      3 F          60.6325   85.4081    8.2082 F       1  UNL1       -0.2040
      4 C          59.9749   87.7504    9.1200 C.ar    1  UNL1        0.0312
      5 C          60.1727   88.8627   10.1067 C.ar    1  UNL1        0.0204
      6 C          61.2258   88.7450   11.1685 C.ar    1  UNL1        0.0924
      7 C          62.0811   87.5150   11.2434 C.ar    1  UNL1        0.1598
      8 F          63.1341   87.3974   12.3051 F       1  UNL1       -0.2026
      9 C          62.7386   85.1728   10.3316 C.2     1  UNL1        0.2036
     10 O          63.6191   84.8000    9.1759 O.2     1  UNL1       -0.2863
     11 C          62.9334   79.3062    9.7507 C.3     1  UNL1        0.0307
     12 C          62.8589   80.3313   10.8433 C.2     1  UNL1        0.0074
     13 C          62.8130   79.8962   12.2780 C.2     1  UNL1        0.2278
     14 N          62.7385   80.9212   13.3706 N.2     1  UNL1       -0.0314
     15 C          62.7099   82.3814   13.0284 C.2     1  UNL1        0.3720
     16 N          62.6391   83.6115   13.8838 N.2     1  UNL1       -0.0307
     17 C          62.6412   84.8069   12.9777 C.2     1  UNL1        0.2390
     18 C          62.7133   84.3156   11.5623 C.2     1  UNL1        0.0896
     19 C          62.7558   82.8164   11.5937 C.2     1  UNL1        0.0771
     20 C          62.8303   81.7914   10.5011 C.3     1  UNL1        0.0602
     21 N          61.4235   89.8573   12.1552 N.pl3   1  UNL1       -0.2128
     22 H          60.6668   90.1713   12.7012 H       1  UNL1        0.1738
     23 S          62.7741   90.4912   12.3101 S.O2    1  UNL1        0.0737
     24 O          62.8339   90.0166   13.7317 O.2     1  UNL1       -0.1499
     25 O          62.7144   90.9658   10.8885 O.2     1  UNL1       -0.1499
     26 C          64.1248   91.1251   12.4650 C.ar    1  UNL1        0.1274
     27 C          64.6917   91.9624   11.3570 C.ar    1  UNL1        0.0203
     28 C          66.0423   92.5964   11.5118 C.ar    1  UNL1        0.0037
     29 C          66.8260   92.3930   12.7746 C.ar    1  UNL1        0.0297
     30 C          66.2591   91.5557   13.8825 C.ar    1  UNL1        0.1415
     31 F          67.0428   91.3524   15.1452 F       1  UNL1       -0.2041
     32 C          64.9085   90.9218   13.7277 C.ar    1  UNL1        0.0498
@<TRIPOS>BOND
     1    11    12    1
     2    12    13    2
     3    13    14    1
     4    14    15    2
     5    15    16    1
     6    16    17    2
     7    17    18    1
     8    18     9    1
     9     9    10    2
    10     9     1    1
    11     1     2   ar
    12     2     3    1
    13     2     4   ar
    14     4     5   ar
    15     5     6   ar
    16     6    21    1
    17    21    23    1
    18    23    24    2
    19    23    25    2
    20    23    26    1
    21    26    27   ar
    22    27    28   ar
    23    28    29   ar
    24    29    30   ar
    25    30    31    1
    26    30    32   ar
    27     6     7   ar
    28     7     8    1
    29    18    19    2
    30    19    20    1
    31    20    12    1
    32    19    15    1
    33     7     1   ar
    34    32    26   ar
    35    21    22    1
@<TRIPOS>MOLECULE
*****
 32 35 0 0 0
SMALL
GASTEIGER

@<TRIPOS>ATOM
      1 C          62.0157   89.2510   11.6440 C.ar    1  UNL1        0.0951
      2 C          60.7624   89.7313   10.9744 C.ar    1  UNL1        0.1454
      3 F          60.2232   91.0966   11.2830 F       1  UNL1       -0.2040
      4 C          60.0482   88.8464    9.9962 C.ar    1  UNL1        0.0312
      5 C          60.5874   87.4811    9.6876 C.ar    1  UNL1        0.0204
      6 C          61.8408   87.0008   10.3573 C.ar    1  UNL1        0.0924
      7 C          62.5550   87.8857   11.3355 C.ar    1  UNL1        0.1598
      8 F          63.8083   87.4053   12.0051 F       1  UNL1       -0.2026
      9 C          62.7298   90.1360   12.6222 C.2     1  UNL1        0.2036
     10 O          62.4422   90.0173   14.0896 O.2     1  UNL1       -0.2863
     11 C          66.5570   92.4761   16.4522 C.3     1  UNL1        0.0307
     12 C          66.2217   92.5657   14.9929 C.2     1  UNL1        0.0074
     13 C          67.0027   93.4824   14.0988 C.2     1  UNL1        0.2278
     14 N          66.6674   93.5720   12.6395 N.2     1  UNL1       -0.0314
     15 C          65.5511   92.7447   12.0743 C.2     1  UNL1        0.3720
     16 N          64.9954   92.6229   10.6863 N.2     1  UNL1       -0.0307
     17 C          63.8709   91.6309   10.7227 C.2     1  UNL1        0.2390
     18 C          63.7316   91.1395   12.1330 C.2     1  UNL1        0.0896
     19 C          64.7701   91.8280   12.9684 C.2     1  UNL1        0.0771
     20 C          65.1054   91.7384   14.4277 C.3     1  UNL1        0.0602
     21 N          62.3800   85.6355   10.0487 N.pl3   1  UNL1       -0.2128
     22 H          62.6430   85.4066    9.1280 H       1  UNL1        0.1738
     23 S          62.5185   84.6188   11.1429 S.O2    1  UNL1        0.0737
     24 O          63.4717   83.8330   10.2922 O.2     1  UNL1       -0.1499
     25 O          61.5652   85.4046   11.9936 O.2     1  UNL1       -0.1499
     26 C          62.6570   83.6022   12.2372 C.ar    1  UNL1        0.1274
     27 C          62.9021   84.0479   13.6483 C.ar    1  UNL1        0.0203
     28 C          63.0406   83.0314   14.7425 C.ar    1  UNL1        0.0037
     29 C          62.9339   81.5691   14.4257 C.ar    1  UNL1        0.0297
     30 C          62.6887   81.1234   13.0146 C.ar    1  UNL1        0.1415
     31 F          62.5821   79.6611   12.6978 F       1  UNL1       -0.2041
     32 C          62.5503   82.1399   11.9204 C.ar    1  UNL1        0.0498
@<TRIPOS>BOND
     1    11    12    1
     2    12    13    2
     3    13    14    1
     4    14    15    2
     5    15    16    1
     6    16    17    2
     7    17    18    1
     8    18     9    1
     9     9    10    2
    10     9     1    1
    11     1     2   ar
    12     2     3    1
    13     2     4   ar
    14     4     5   ar
    15     5     6   ar
    16     6    21    1
    17    21    23    1
    18    23    24    2
    19    23    25    2
    20    23    26    1
    21    26    27   ar
    22    27    28   ar
    23    28    29   ar
    24    29    30   ar
    25    30    31    1
    26    30    32   ar
    27     6     7   ar
    28     7     8    1
    29    18    19    2
    30    19    20    1
    31    20    12    1
    32    19    15    1
    33     7     1   ar
    34    32    26   ar
    35    21    22    1
@<TRIPOS>MOLECULE
*****
 32 35 0 0 0
SMALL
GASTEIGER

@<TRIPOS>ATOM
      1 C          61.8401   86.3235   10.1069 C.ar    1  UNL1        0.0951
      2 C          60.6820   86.3763    9.1552 C.ar    1  UNL1        0.1454
      3 F          60.4925   85.2854    8.1433 F       1  UNL1       -0.2040
      4 C          59.7132   87.5200    9.2154 C.ar    1  UNL1        0.0312
      5 C          59.9027   88.6109   10.2274 C.ar    1  UNL1        0.0204
      6 C          61.0609   88.5580   11.1791 C.ar    1  UNL1        0.0924
      7 C          62.0297   87.4144   11.1189 C.ar    1  UNL1        0.1598
      8 F          63.1878   87.3616   12.0707 F       1  UNL1       -0.2026
      9 C          62.8089   85.1798   10.0467 C.2     1  UNL1        0.2036
     10 O          63.8141   85.1061    8.9358 O.2     1  UNL1       -0.2863
     11 C          64.4167   86.5144   15.5626 C.3     1  UNL1        0.0307
     12 C          63.9312   85.3283   14.7832 C.2     1  UNL1        0.0074
     13 C          63.7455   84.0063   15.4672 C.2     1  UNL1        0.2278
     14 N          63.2601   82.8202   14.6878 N.2     1  UNL1       -0.0314
     15 C          62.9604   82.9561   13.2244 C.2     1  UNL1        0.3720
     16 N          62.4719   81.9709   12.2042 N.2     1  UNL1       -0.0307
     17 C          62.3556   82.6840   10.8896 C.2     1  UNL1        0.2390
     18 C          62.7723   84.1099   11.0974 C.2     1  UNL1        0.0896
     19 C          63.1461   84.2780   12.5404 C.2     1  UNL1        0.0771
     20 C          63.6315   85.4642   13.3198 C.3     1  UNL1        0.0602
     21 N          61.2504   89.6489   12.1911 N.pl3   1  UNL1       -0.2128
     22 H          60.5024   89.9160   12.7728 H       1  UNL1        0.1738
     23 S          62.5794   90.3329   12.3167 S.O2    1  UNL1        0.0737
     24 O          62.4406   90.8594   10.9191 O.2     1  UNL1       -0.1499
     25 O          62.7183   89.8064   13.7143 O.2     1  UNL1       -0.1499
     26 C          63.9086   91.0169   12.4423 C.ar    1  UNL1        0.1274
     27 C          64.4358   91.8452   11.3084 C.ar    1  UNL1        0.0203
     28 C          65.7649   92.5292   11.4340 C.ar    1  UNL1        0.0037
     29 C          66.5667   92.3848   12.6935 C.ar    1  UNL1        0.0297
     30 C          66.0394   91.5565   13.8274 C.ar    1  UNL1        0.1415
     31 F          66.8412   91.4121   15.0869 F       1  UNL1       -0.2041
     32 C          64.7103   90.8725   13.7018 C.ar    1  UNL1        0.0498
@<TRIPOS>BOND
     1    11    12    1
     2    12    13    2
     3    13    14    1
     4    14    15    2
     5    15    16    1
     6    16    17    2
     7    17    18    1
     8    18     9    1
     9     9    10    2
    10     9     1    1
    11     1     2   ar
    12     2     3    1
    13     2     4   ar
    14     4     5   ar
    15     5     6   ar
    16     6    21    1
    17    21    23    1
    18    23    24    2
    19    23    25    2
    20    23    26    1
    21    26    27   ar
    22    27    28   ar
    23    28    29   ar
    24    29    30   ar
    25    30    31    1
    26    30    32   ar
    27     6     7   ar
    28     7     8    1
    29    18    19    2
    30    19    20    1
    31    20    12    1
    32    19    15    1
    33     7     1   ar
    34    32    26   ar
    35    21    22    1
@<TRIPOS>MOLECULE
*****
 32 35 0 0 0
SMALL
GASTEIGER

@<TRIPOS>ATOM
      1 C          61.1088   88.4062    9.7457 C.ar    1  UNL1        0.0951
      2 C          60.1703   88.0783    8.6224 C.ar    1  UNL1        0.1454
      3 F          59.1114   89.0611    8.2189 F       1  UNL1       -0.2040
      4 C          60.2908   86.7678    7.9027 C.ar    1  UNL1        0.0312
      5 C          61.3498   85.7851    8.3062 C.ar    1  UNL1        0.0204
      6 C          62.2883   86.1130    9.4295 C.ar    1  UNL1        0.0924
      7 C          62.1678   87.4235   10.1492 C.ar    1  UNL1        0.1598
      8 F          63.1064   87.7513   11.2725 F       1  UNL1       -0.2026
      9 C          60.9883   89.7167   10.4654 C.2     1  UNL1        0.2036
     10 O          60.0807   90.7849    9.9315 O.2     1  UNL1       -0.2863
     11 C          65.8545   93.0400   10.2047 C.3     1  UNL1        0.0307
     12 C          65.0616   92.2760   11.2233 C.2     1  UNL1        0.0074
     13 C          65.5081   92.2492   12.6551 C.2     1  UNL1        0.2278
     14 N          64.7153   91.4852   13.6738 N.2     1  UNL1       -0.0314
     15 C          63.4759   90.7481   13.2607 C.2     1  UNL1        0.3720
     16 N          62.4980   89.9156   14.0357 N.2     1  UNL1       -0.0307
     17 C          61.4471   89.4279   13.0829 C.2     1  UNL1        0.2390
     18 C          61.7755   89.9590   11.7190 C.2     1  UNL1        0.0896
     19 C          63.0294   90.7749   11.8290 C.2     1  UNL1        0.0771
     20 C          63.8223   91.5389   10.8103 C.3     1  UNL1        0.0602
     21 N          63.3473   85.1303    9.8330 N.pl3   1  UNL1       -0.2128
     22 H          64.2232   85.1382    9.3835 H       1  UNL1        0.1738
     23 S          63.0718   84.1355   10.9214 S.O2    1  UNL1        0.0737
     24 O          61.9477   84.9936   11.4212 O.2     1  UNL1       -0.1499
     25 O          64.1959   83.2773   10.4215 O.2     1  UNL1       -0.1499
     26 C          62.7963   83.1406   12.0097 C.ar    1  UNL1        0.1274
     27 C          62.5444   83.6127   13.4110 C.ar    1  UNL1        0.0203
     28 C          62.2689   82.6179   14.4994 C.ar    1  UNL1        0.0037
     29 C          62.2455   81.1511   14.1865 C.ar    1  UNL1        0.0297
     30 C          62.4974   80.6791   12.7852 C.ar    1  UNL1        0.1415
     31 F          62.4740   79.2122   12.4722 F       1  UNL1       -0.2041
     32 C          62.7729   81.6738   11.6968 C.ar    1  UNL1        0.0498
@<TRIPOS>BOND
     1    11    12    1
     2    12    13    2
     3    13    14    1
     4    14    15    2
     5    15    16    1
     6    16    17    2
     7    17    18    1
     8    18     9    1
     9     9    10    2
    10     9     1    1
    11     1     2   ar
    12     2     3    1
    13     2     4   ar
    14     4     5   ar
    15     5     6   ar
    16     6    21    1
    17    21    23    1
    18    23    24    2
    19    23    25    2
    20    23    26    1
    21    26    27   ar
    22    27    28   ar
    23    28    29   ar
    24    29    30   ar
    25    30    31    1
    26    30    32   ar
    27     6     7   ar
    28     7     8    1
    29    18    19    2
    30    19    20    1
    31    20    12    1
    32    19    15    1
    33     7     1   ar
    34    32    26   ar
    35    21    22    1
@<TRIPOS>MOLECULE
*****
 32 35 0 0 0
SMALL
GASTEIGER

@<TRIPOS>ATOM
      1 C          63.6600   89.5859   12.8307 C.ar    1  UNL1        0.0951
      2 C          63.6159   90.9481   12.2043 C.ar    1  UNL1        0.1454
      3 F          64.2549   92.1139   12.8989 F       1  UNL1       -0.2040
      4 C          62.9328   91.1445   10.8835 C.ar    1  UNL1        0.0312
      5 C          62.2937   89.9786   10.1889 C.ar    1  UNL1        0.0204
      6 C          62.3379   88.6163   10.8153 C.ar    1  UNL1        0.0924
      7 C          63.0210   88.4199   12.1362 C.ar    1  UNL1        0.1598
      8 F          63.0651   87.0577   12.7625 F       1  UNL1       -0.2026
      9 C          64.3432   89.3895   14.1516 C.2     1  UNL1        0.2036
     10 O          64.7399   88.0120   14.5933 O.2     1  UNL1       -0.2863
     11 C          69.5704   92.0886   13.7236 C.3     1  UNL1        0.0307
     12 C          68.2974   92.2096   14.5078 C.2     1  UNL1        0.0074
     13 C          68.1489   93.2936   15.5339 C.2     1  UNL1        0.2278
     14 N          66.8760   93.4147   16.3181 N.2     1  UNL1       -0.0314
     15 C          65.7516   92.4518   16.0762 C.2     1  UNL1        0.3720
     16 N          64.3893   92.3245   16.6911 N.2     1  UNL1       -0.0307
     17 C          63.6959   91.1618   16.0449 C.2     1  UNL1        0.2390
     18 C          64.6296   90.5706   15.0308 C.2     1  UNL1        0.0896
     19 C          65.9001   91.3678   15.0501 C.2     1  UNL1        0.0771
     20 C          67.1730   91.2468   14.2659 C.3     1  UNL1        0.0602
     21 N          61.6989   87.4505   10.1207 N.pl3   1  UNL1       -0.2128
     22 H          60.9614   87.5997    9.4858 H       1  UNL1        0.1738
     23 S          62.1834   86.0574   10.3936 S.O2    1  UNL1        0.0737
     24 O          61.2599   85.9670   11.5721 O.2     1  UNL1       -0.1499
     25 O          63.1069   86.1477    9.2151 O.2     1  UNL1       -0.1499
     26 C          62.6679   84.6642   10.6664 C.ar    1  UNL1        0.1274
     27 C          63.6053   83.9946    9.7057 C.ar    1  UNL1        0.0203
     28 C          64.0899   82.6015    9.9785 C.ar    1  UNL1        0.0037
     29 C          63.6371   81.8780   11.2120 C.ar    1  UNL1        0.0297
     30 C          62.6998   82.5476   12.1727 C.ar    1  UNL1        0.1415
     31 F          62.2470   81.8240   13.4062 F       1  UNL1       -0.2041
     32 C          62.2152   83.9407   11.8999 C.ar    1  UNL1        0.0498
@<TRIPOS>BOND
     1    11    12    1
     2    12    13    2
     3    13    14    1
     4    14    15    2
     5    15    16    1
     6    16    17    2
     7    17    18    1
     8    18     9    1
     9     9    10    2
    10     9     1    1
    11     1     2   ar
    12     2     3    1
    13     2     4   ar
    14     4     5   ar
    15     5     6   ar
    16     6    21    1
    17    21    23    1
    18    23    24    2
    19    23    25    2
    20    23    26    1
    21    26    27   ar
    22    27    28   ar
    23    28    29   ar
    24    29    30   ar
    25    30    31    1
    26    30    32   ar
    27     6     7   ar
    28     7     8    1
    29    18    19    2
    30    19    20    1
    31    20    12    1
    32    19    15    1
    33     7     1   ar
    34    32    26   ar
    35    21    22    1
@<TRIPOS>MOLECULE
*****
 32 35 0 0 0
SMALL
GASTEIGER

@<TRIPOS>ATOM
      1 C          63.7433   87.0779   13.4038 C.ar    1  UNL1        0.0951
      2 C          63.0143   86.8349   12.1157 C.ar    1  UNL1        0.1454
      3 F          62.8457   85.4358   11.6017 F       1  UNL1       -0.2040
      4 C          62.4537   87.9909   11.3415 C.ar    1  UNL1        0.0312
      5 C          62.6222   89.3900   11.8554 C.ar    1  UNL1        0.0204
      6 C          63.3514   89.6330   13.1436 C.ar    1  UNL1        0.0924
      7 C          63.9119   88.4770   13.9178 C.ar    1  UNL1        0.1598
      8 F          64.6410   88.7201   15.2060 F       1  UNL1       -0.2026
      9 C          64.3039   85.9219   14.1780 C.2     1  UNL1        0.2036
     10 O          65.7692   85.8713   14.4948 O.2     1  UNL1       -0.2863
     11 C          63.5062   81.2333   10.6890 C.3     1  UNL1        0.0307
     12 C          63.0517   81.7358   12.0273 C.2     1  UNL1        0.0074
     13 C          62.1071   80.9158   12.8551 C.2     1  UNL1        0.2278
     14 N          61.6527   81.4183   14.1934 N.2     1  UNL1       -0.0314
     15 C          62.1429   82.7408   14.7039 C.2     1  UNL1        0.3720
     16 N          61.8707   83.4895   15.9748 N.2     1  UNL1       -0.0307
     17 C          62.6470   84.7723   15.9325 C.2     1  UNL1        0.2390
     18 C          63.3991   84.8164   14.6355 C.2     1  UNL1        0.0896
     19 C          63.0875   83.5608   13.8761 C.2     1  UNL1        0.0771
     20 C          63.5419   83.0583   12.5378 C.3     1  UNL1        0.0602
     21 N          63.5199   91.0321   13.6575 N.pl3   1  UNL1       -0.2128
     22 H          62.7475   91.6418   13.6878 H       1  UNL1        0.1738
     23 S          64.8653   91.5023   14.1253 S.O2    1  UNL1        0.0737
     24 O          64.3478   91.5852   15.5307 O.2     1  UNL1       -0.1499
     25 O          65.3829   91.4194   12.7199 O.2     1  UNL1       -0.1499
     26 C          66.2108   91.9725   14.5931 C.ar    1  UNL1        0.1274
     27 C          66.3409   92.6870   15.9055 C.ar    1  UNL1        0.0203
     28 C          67.6863   93.1572   16.3733 C.ar    1  UNL1        0.0037
     29 C          68.9015   92.9130   15.5286 C.ar    1  UNL1        0.0297
     30 C          68.7714   92.1985   14.2161 C.ar    1  UNL1        0.1415
     31 F          69.9867   91.9543   13.3714 F       1  UNL1       -0.2041
     32 C          67.4260   91.7283   13.7484 C.ar    1  UNL1        0.0498
@<TRIPOS>BOND
     1    11    12    1
     2    12    13    2
     3    13    14    1
     4    14    15    2
     5    15    16    1
     6    16    17    2
     7    17    18    1
     8    18     9    1
     9     9    10    2
    10     9     1    1
    11     1     2   ar
    12     2     3    1
    13     2     4   ar
    14     4     5   ar
    15     5     6   ar
    16     6    21    1
    17    21    23    1
    18    23    24    2
    19    23    25    2
    20    23    26    1
    21    26    27   ar
    22    27    28   ar
    23    28    29   ar
    24    29    30   ar
    25    30    31    1
    26    30    32   ar
    27     6     7   ar
    28     7     8    1
    29    18    19    2
    30    19    20    1
    31    20    12    1
    32    19    15    1
    33     7     1   ar
    34    32    26   ar
    35    21    22    1
@<TRIPOS>MOLECULE
*****
 32 35 0 0 0
SMALL
GASTEIGER

@<TRIPOS>ATOM
      1 C          62.3911   86.6609   11.5973 C.ar    1  UNL1        0.0951
      2 C          61.4718   86.3396   10.4564 C.ar    1  UNL1        0.1454
      3 F          61.2596   84.9133   10.0432 F       1  UNL1       -0.2040
      4 C          60.7648   87.4444    9.7288 C.ar    1  UNL1        0.0312
      5 C          60.9770   88.8707   10.1420 C.ar    1  UNL1        0.0204
      6 C          61.8964   89.1920   11.2830 C.ar    1  UNL1        0.0924
      7 C          62.6034   88.0872   12.0106 C.ar    1  UNL1        0.1598
      8 F          63.5227   88.4086   13.1514 F       1  UNL1       -0.2026
      9 C          63.0982   85.5561   12.3249 C.2     1  UNL1        0.2036
     10 O          63.4660   85.7245   13.7693 O.2     1  UNL1       -0.2863
     11 C          60.9883   80.4486   14.3874 C.3     1  UNL1        0.0307
     12 C          61.8447   80.9441   13.2600 C.2     1  UNL1        0.0074
     13 C          62.4156   79.9733   12.2692 C.2     1  UNL1        0.2278
     14 N          63.2720   80.4688   11.1418 N.2     1  UNL1       -0.0314
     15 C          63.5576   81.9350   11.0051 C.2     1  UNL1        0.3720
     16 N          64.3611   82.7121   10.0049 N.2     1  UNL1       -0.0307
     17 C          64.2868   84.1632   10.3775 C.2     1  UNL1        0.2390
     18 C          63.4374   84.2829   11.6081 C.2     1  UNL1        0.0896
     19 C          62.9867   82.9057   11.9959 C.2     1  UNL1        0.0771
     20 C          62.1303   82.4103   13.1233 C.3     1  UNL1        0.0602
     21 N          62.1086   90.6183   11.6962 N.pl3   1  UNL1       -0.2128
     22 H          61.3433   91.2357   11.7451 H       1  UNL1        0.1738
     23 S          63.4868   91.1038   12.0350 S.O2    1  UNL1        0.0737
     24 O          63.1047   91.1779   13.4835 O.2     1  UNL1       -0.1499
     25 O          63.8690   91.0297   10.5864 O.2     1  UNL1       -0.1499
     26 C          64.8651   91.5894   12.3737 C.ar    1  UNL1        0.1274
     27 C          65.6264   92.4300   11.3920 C.ar    1  UNL1        0.0203
     28 C          67.0046   92.9155   11.7306 C.ar    1  UNL1        0.0037
     29 C          67.6216   92.5605   13.0510 C.ar    1  UNL1        0.0297
     30 C          66.8603   91.7199   14.0327 C.ar    1  UNL1        0.1415
     31 F          67.4772   91.3649   15.3531 F       1  UNL1       -0.2041
     32 C          65.4820   91.2343   13.6940 C.ar    1  UNL1        0.0498
@<TRIPOS>BOND
     1    11    12    1
     2    12    13    2
     3    13    14    1
     4    14    15    2
     5    15    16    1
     6    16    17    2
     7    17    18    1
     8    18     9    1
     9     9    10    2
    10     9     1    1
    11     1     2   ar
    12     2     3    1
    13     2     4   ar
    14     4     5   ar
    15     5     6   ar
    16     6    21    1
    17    21    23    1
    18    23    24    2
    19    23    25    2
    20    23    26    1
    21    26    27   ar
    22    27    28   ar
    23    28    29   ar
    24    29    30   ar
    25    30    31    1
    26    30    32   ar
    27     6     7   ar
    28     7     8    1
    29    18    19    2
    30    19    20    1
    31    20    12    1
    32    19    15    1
    33     7     1   ar
    34    32    26   ar
    35    21    22    1
@<TRIPOS>MOLECULE
*****
 32 35 0 0 0
SMALL
GASTEIGER

@<TRIPOS>ATOM
      1 C          61.7867   88.2202   10.9482 C.ar    1  UNL1        0.0951
      2 C          60.9634   88.8771    9.8802 C.ar    1  UNL1        0.1454
      3 F          59.9674   88.0718    9.0994 F       1  UNL1       -0.2040
      4 C          61.1361   90.3391    9.5930 C.ar    1  UNL1        0.0312
      5 C          62.1320   91.1444   10.3738 C.ar    1  UNL1        0.0204
      6 C          62.9554   90.4874   11.4418 C.ar    1  UNL1        0.0924
      7 C          62.7828   89.0253   11.7290 C.ar    1  UNL1        0.1598
      8 F          63.6061   88.3685   12.7970 F       1  UNL1       -0.2026
      9 C          61.6141   86.7581   11.2354 C.2     1  UNL1        0.2036
     10 O          60.6713   86.3117   12.3133 O.2     1  UNL1       -0.2863
     11 C          63.7095   81.9727   13.9743 C.3     1  UNL1        0.0307
     12 C          63.6929   82.5704   12.5986 C.2     1  UNL1        0.0074
     13 C          64.3696   81.8600   11.4640 C.2     1  UNL1        0.2278
     14 N          64.3530   82.4577   10.0883 N.2     1  UNL1       -0.0314
     15 C          63.6598   83.7658    9.8472 C.2     1  UNL1        0.3720
     16 N          63.4792   84.5928    8.6089 N.2     1  UNL1       -0.0307
     17 C          62.6909   85.8144    8.9782 C.2     1  UNL1        0.2390
     18 C          62.3843   85.7424   10.4448 C.2     1  UNL1        0.0896
     19 C          62.9832   84.4763   10.9818 C.2     1  UNL1        0.0771
     20 C          62.9997   83.8786   12.3575 C.3     1  UNL1        0.0602
     21 N          63.9514   91.2927   12.2226 N.pl3   1  UNL1       -0.2128
     22 H          63.9401   91.2694   13.2067 H       1  UNL1        0.1738
     23 S          64.9646   92.1334   11.5039 S.O2    1  UNL1        0.0737
     24 O          65.2907   92.8377   12.7874 O.2     1  UNL1       -0.1499
     25 O          64.6384   91.4292   10.2203 O.2     1  UNL1       -0.1499
     26 C          65.9778   92.9742   10.7851 C.ar    1  UNL1        0.1274
     27 C          65.7658   94.4531   10.6510 C.ar    1  UNL1        0.0203
     28 C          66.7789   95.2939    9.9323 C.ar    1  UNL1        0.0037
     29 C          68.0041   94.6558    9.3476 C.ar    1  UNL1        0.0297
     30 C          68.2161   93.1769    9.4817 C.ar    1  UNL1        0.1415
     31 F          69.4413   92.5389    8.8970 F       1  UNL1       -0.2041
     32 C          67.2030   92.3361   10.2004 C.ar    1  UNL1        0.0498
@<TRIPOS>BOND
     1    11    12    1
     2    12    13    2
     3    13    14    1
     4    14    15    2
     5    15    16    1
     6    16    17    2
     7    17    18    1
     8    18     9    1
     9     9    10    2
    10     9     1    1
    11     1     2   ar
    12     2     3    1
    13     2     4   ar
    14     4     5   ar
    15     5     6   ar
    16     6    21    1
    17    21    23    1
    18    23    24    2
    19    23    25    2
    20    23    26    1
    21    26    27   ar
    22    27    28   ar
    23    28    29   ar
    24    29    30   ar
    25    30    31    1
    26    30    32   ar
    27     6     7   ar
    28     7     8    1
    29    18    19    2
    30    19    20    1
    31    20    12    1
    32    19    15    1
    33     7     1   ar
    34    32    26   ar
    35    21    22    1
