@<TRIPOS>MOLECULE
*****
 20 22 0 0 0
SMALL
GASTEIGER

@<TRIPOS>ATOM
      1 C          62.3484   89.9249   11.3685 C.ar    1  UNL1        0.0247
      2 C          63.0018   90.1638   12.6975 C.ar    1  UNL1        0.0052
      3 C          64.0614   91.2090   12.5117 C.ar    1  UNL1        0.0205
      4 C          64.0631   91.6161   11.0681 C.ar    1  UNL1        0.1025
      5 N          65.0284   92.6569   10.5834 N.am    1  UNL1       -0.1689
      6 C          65.9921   93.2906   11.5423 C.2     1  UNL1        0.2692
      7 O          66.9575   94.3313   11.0576 O.2     1  UNL1       -0.2680
      8 C          65.9905   92.8835   12.9861 C.2     1  UNL1        0.0541
      9 C          66.9542   93.5172   13.9451 C.2     1  UNL1        0.0041
     10 C          66.9526   93.1101   15.3887 C.2     1  UNL1       -0.0017
     11 C          65.9873   92.0693   15.8734 C.2     1  UNL1        0.0070
     12 C          65.0235   91.4357   14.9145 C.3     1  UNL1        0.1550
     13 O          64.0582   90.3949   15.3992 O.3     1  UNL1       -0.3756
     14 C          65.0252   91.8427   13.4708 C.2     1  UNL1        0.0146
     15 S          63.0044   90.8225   10.3615 S.2     1  UNL1       -0.0734
     16 H          64.3709   89.5507   15.6590 H       1  UNL1        0.2112
     17 C          61.2346   88.9581   11.0947 C.3     1  UNL1        0.1058
     18 C          62.0096   87.1169    9.4337 C.3     1  UNL1        0.0899
     19 N          61.1330   88.2909    9.7552 N.3     1  UNL1       -0.2661
     20 C          60.1549   88.7976    8.7371 C.3     1  UNL1        0.0899
@<TRIPOS>BOND
     1    18    19    1
     2    19    20    1
     3    19    17    1
     4    17     1    1
     5     1     2   ar
     6     2     3   ar
     7     3     4   ar
     8     4     5    2
     9     5     6    1
    10     6     7    2
    11     6     8    1
    12     8     9    2
    13     9    10    1
    14    10    11    2
    15    11    12    1
    16    12    13    1
    17    12    14    1
    18     4    15   ar
    19    15     1   ar
    20    14     3    2
    21    14     8    1
    22    13    16    1
@<TRIPOS>MOLECULE
*****
 20 22 0 0 0
SMALL
GASTEIGER

@<TRIPOS>ATOM
      1 C          63.5732   83.6819   13.8803 C.ar    1  UNL1        0.0247
      2 C          62.9938   84.3942   12.6941 C.ar    1  UNL1        0.0052
      3 C          63.2392   85.8634   12.8705 C.ar    1  UNL1        0.0205
      4 C          63.9702   86.0592   14.1656 C.ar    1  UNL1        0.1025
      5 N          64.3534   87.4399   14.6093 N.am    1  UNL1       -0.1689
      6 C          64.0057   88.6248   13.7579 C.2     1  UNL1        0.2692
      7 O          64.3889   90.0055   14.2015 O.2     1  UNL1       -0.2680
      8 C          63.2746   88.4291   12.4627 C.2     1  UNL1        0.0541
      9 C          62.9269   89.6140   11.6113 C.2     1  UNL1        0.0041
     10 C          62.1959   89.4183   10.3162 C.2     1  UNL1       -0.0017
     11 C          61.8127   88.0376    9.8725 C.2     1  UNL1        0.0070
     12 C          62.1604   86.8527   10.7239 C.3     1  UNL1        0.1550
     13 O          61.7772   85.4720   10.2803 O.3     1  UNL1       -0.3756
     14 C          62.8914   87.0484   12.0190 C.2     1  UNL1        0.0146
     15 S          64.1766   84.7109   14.7897 S.2     1  UNL1       -0.0734
     16 H          60.8760   85.2154   10.2731 H       1  UNL1        0.2112
     17 C          63.5527   82.2006   14.1157 C.3     1  UNL1        0.1058
     18 C          62.7991   80.7462   12.0991 C.3     1  UNL1        0.0899
     19 N          62.5172   81.3486   13.4436 N.3     1  UNL1       -0.2661
     20 C          61.1997   81.0990   14.1159 C.3     1  UNL1        0.0899
@<TRIPOS>BOND
     1    18    19    1
     2    19    20    1
     3    19    17    1
     4    17     1    1
     5     1     2   ar
     6     2     3   ar
     7     3     4   ar
     8     4     5    2
     9     5     6    1
    10     6     7    2
    11     6     8    1
    12     8     9    2
    13     9    10    1
    14    10    11    2
    15    11    12    1
    16    12    13    1
    17    12    14    1
    18     4    15   ar
    19    15     1   ar
    20    14     3    2
    21    14     8    1
    22    13    16    1
@<TRIPOS>MOLECULE
*****
 20 22 0 0 0
SMALL
GASTEIGER

@<TRIPOS>ATOM
      1 C          63.9359   90.3298   13.4082 C.ar    1  UNL1        0.0247
      2 C          63.0546   90.3181   12.1944 C.ar    1  UNL1        0.0052
      3 C          62.7399   88.8892   11.8639 C.ar    1  UNL1        0.0205
      4 C          63.4268   88.0178   12.8733 C.ar    1  UNL1        0.1025
      5 N          63.2904   86.5262   12.7930 N.am    1  UNL1       -0.1689
      6 C          62.4671   85.9060   11.7032 C.2     1  UNL1        0.2692
      7 O          62.3307   84.4143   11.6229 O.2     1  UNL1       -0.2680
      8 C          61.7802   86.7774   10.6938 C.2     1  UNL1        0.0541
      9 C          60.9570   86.1571    9.6040 C.2     1  UNL1        0.0041
     10 C          60.2702   87.0285    8.5947 C.2     1  UNL1       -0.0017
     11 C          60.4066   88.5201    8.6750 C.2     1  UNL1        0.0070
     12 C          61.2298   89.1404    9.7647 C.3     1  UNL1        0.1550
     13 O          61.3662   90.6320    9.8451 O.3     1  UNL1       -0.3756
     14 C          61.9167   88.2690   10.7741 C.2     1  UNL1        0.0146
     15 S          64.1659   88.9081   13.8277 S.2     1  UNL1       -0.0734
     16 H          61.8598   91.0930    9.1956 H       1  UNL1        0.2112
     17 C          64.4900   91.5491   14.0837 C.3     1  UNL1        0.1058
     18 C          65.9168   93.1067   12.5712 C.3     1  UNL1        0.0899
     19 N          65.8263   92.0924   13.6725 N.3     1  UNL1       -0.2661
     20 C          67.0720   91.6214   14.3626 C.3     1  UNL1        0.0899
@<TRIPOS>BOND
     1    18    19    1
     2    19    20    1
     3    19    17    1
     4    17     1    1
     5     1     2   ar
     6     2     3   ar
     7     3     4   ar
     8     4     5    2
     9     5     6    1
    10     6     7    2
    11     6     8    1
    12     8     9    2
    13     9    10    1
    14    10    11    2
    15    11    12    1
    16    12    13    1
    17    12    14    1
    18     4    15   ar
    19    15     1   ar
    20    14     3    2
    21    14     8    1
    22    13    16    1
@<TRIPOS>MOLECULE
*****
 20 22 0 0 0
SMALL
GASTEIGER

@<TRIPOS>ATOM
      1 C          64.2699   89.6945   14.1053 C.ar    1  UNL1        0.0247
      2 C          64.4781   88.2565   14.4780 C.ar    1  UNL1        0.0052
      3 C          63.7569   87.4082   13.4731 C.ar    1  UNL1        0.0205
      4 C          63.1029   88.3217   12.4793 C.ar    1  UNL1        0.1025
      5 N          62.3031   87.7489   11.3469 N.am    1  UNL1       -0.1689
      6 C          62.1573   86.2624   11.2084 C.2     1  UNL1        0.2692
      7 O          61.3576   85.6896   10.0760 O.2     1  UNL1       -0.2680
      8 C          62.8113   85.3488   12.2022 C.2     1  UNL1        0.0541
      9 C          62.6655   83.8624   12.0637 C.2     1  UNL1        0.0041
     10 C          63.3195   82.9488   13.0575 C.2     1  UNL1       -0.0017
     11 C          64.1193   83.5217   14.1898 C.2     1  UNL1        0.0070
     12 C          64.2650   85.0081   14.3284 C.3     1  UNL1        0.1550
     13 O          65.0648   85.5809   15.4607 O.3     1  UNL1       -0.3756
     14 C          63.6111   85.9216   13.3346 C.2     1  UNL1        0.0146
     15 S          63.4200   89.7348   12.8700 S.2     1  UNL1       -0.0734
     16 H          64.7437   85.5202   16.3389 H       1  UNL1        0.2112
     17 C          64.8159   90.8835   14.8391 C.3     1  UNL1        0.1058
     18 C          65.7643   92.5226   13.0605 C.3     1  UNL1        0.0899
     19 N          65.9683   91.6541   14.2663 N.3     1  UNL1       -0.2661
     20 C          67.3246   91.5561   14.8993 C.3     1  UNL1        0.0899
@<TRIPOS>BOND
     1    18    19    1
     2    19    20    1
     3    19    17    1
     4    17     1    1
     5     1     2   ar
     6     2     3   ar
     7     3     4   ar
     8     4     5    2
     9     5     6    1
    10     6     7    2
    11     6     8    1
    12     8     9    2
    13     9    10    1
    14    10    11    2
    15    11    12    1
    16    12    13    1
    17    12    14    1
    18     4    15   ar
    19    15     1   ar
    20    14     3    2
    21    14     8    1
    22    13    16    1
@<TRIPOS>MOLECULE
*****
 20 22 0 0 0
SMALL
GASTEIGER

@<TRIPOS>ATOM
      1 C          61.4348   89.8201   10.2931 C.ar    1  UNL1        0.0247
      2 C          62.6435   90.7076   10.3333 C.ar    1  UNL1        0.0052
      3 C          63.1304   90.7637   11.7509 C.ar    1  UNL1        0.0205
      4 C          62.2227   89.9110   12.5869 C.ar    1  UNL1        0.1025
      5 N          62.4676   89.7756   14.0606 N.am    1  UNL1       -0.1689
      6 C          63.6203   90.4930   14.6982 C.2     1  UNL1        0.2692
      7 O          63.8653   90.3577   16.1719 O.2     1  UNL1       -0.2680
      8 C          64.5281   91.3458   13.8622 C.2     1  UNL1        0.0541
      9 C          65.6807   92.0632   14.4999 C.2     1  UNL1        0.0041
     10 C          66.5884   92.9159   13.6639 C.2     1  UNL1       -0.0017
     11 C          66.3435   93.0512   12.1902 C.2     1  UNL1        0.0070
     12 C          65.1908   92.3338   11.5526 C.3     1  UNL1        0.1550
     13 O          64.9458   92.4691   10.0789 O.3     1  UNL1       -0.3756
     14 C          64.2831   91.4811   12.3886 C.2     1  UNL1        0.0146
     15 S          61.1747   89.3278   11.6859 S.2     1  UNL1       -0.0734
     16 H          64.6469   93.2842    9.7266 H       1  UNL1        0.2112
     17 C          60.6278   89.4841    9.0741 C.3     1  UNL1        0.1058
     18 C          59.2260   87.6524    7.8785 C.3     1  UNL1        0.0899
     19 N          60.4324   88.0513    8.6755 N.3     1  UNL1       -0.2661
     20 C          61.4435   87.0174    9.0740 C.3     1  UNL1        0.0899
@<TRIPOS>BOND
     1    18    19    1
     2    19    20    1
     3    19    17    1
     4    17     1    1
     5     1     2   ar
     6     2     3   ar
     7     3     4   ar
     8     4     5    2
     9     5     6    1
    10     6     7    2
    11     6     8    1
    12     8     9    2
    13     9    10    1
    14    10    11    2
    15    11    12    1
    16    12    13    1
    17    12    14    1
    18     4    15   ar
    19    15     1   ar
    20    14     3    2
    21    14     8    1
    22    13    16    1
@<TRIPOS>MOLECULE
*****
 20 22 0 0 0
SMALL
GASTEIGER

@<TRIPOS>ATOM
      1 C          63.2410   83.9192   12.9503 C.ar    1  UNL1        0.0247
      2 C          63.6755   85.2417   13.5091 C.ar    1  UNL1        0.0052
      3 C          63.1797   86.3186   12.5902 C.ar    1  UNL1        0.0205
      4 C          62.4387   85.6618   11.4636 C.ar    1  UNL1        0.1025
      5 N          61.8253   86.4988   10.3805 N.am    1  UNL1       -0.1689
      6 C          61.9528   87.9927   10.4242 C.2     1  UNL1        0.2692
      7 O          61.3393   88.8298    9.3411 O.2     1  UNL1       -0.2680
      8 C          62.6938   88.6496   11.5509 C.2     1  UNL1        0.0541
      9 C          62.8213   90.1435   11.5946 C.2     1  UNL1        0.0041
     10 C          63.5623   90.8004   12.7213 C.2     1  UNL1       -0.0017
     11 C          64.1758   89.9633   13.8043 C.2     1  UNL1        0.0070
     12 C          64.0483   88.4694   13.7606 C.3     1  UNL1        0.1550
     13 O          64.6617   87.6323   14.8437 O.3     1  UNL1       -0.3756
     14 C          63.3073   87.8126   12.6340 C.2     1  UNL1        0.0146
     15 S          62.4766   84.1789   11.6861 S.2     1  UNL1       -0.0734
     16 H          65.5937   87.5612   14.9097 H       1  UNL1        0.2112
     17 C          63.5215   82.5734   13.5504 C.3     1  UNL1        0.1058
     18 C          62.8481   80.4605   12.1970 C.3     1  UNL1        0.0899
     19 N          62.5787   81.4324   13.3072 N.3     1  UNL1       -0.2661
     20 C          61.3664   81.2634   14.1743 C.3     1  UNL1        0.0899
@<TRIPOS>BOND
     1    18    19    1
     2    19    20    1
     3    19    17    1
     4    17     1    1
     5     1     2   ar
     6     2     3   ar
     7     3     4   ar
     8     4     5    2
     9     5     6    1
    10     6     7    2
    11     6     8    1
    12     8     9    2
    13     9    10    1
    14    10    11    2
    15    11    12    1
    16    12    13    1
    17    12    14    1
    18     4    15   ar
    19    15     1   ar
    20    14     3    2
    21    14     8    1
    22    13    16    1
@<TRIPOS>MOLECULE
*****
 20 22 0 0 0
SMALL
GASTEIGER

@<TRIPOS>ATOM
      1 C          64.5193   90.7460   14.0905 C.ar    1  UNL1        0.0247
      2 C          64.2743   89.2719   13.9599 C.ar    1  UNL1        0.0052
      3 C          63.4503   89.0465   12.7270 C.ar    1  UNL1        0.0205
      4 C          63.1860   90.3812   12.0956 C.ar    1  UNL1        0.1025
      5 N          62.3778   90.4676   10.8349 N.am    1  UNL1       -0.1689
      6 C          61.8340   89.2194   10.2055 C.2     1  UNL1        0.2692
      7 O          61.0258   89.3059    8.9448 O.2     1  UNL1       -0.2680
      8 C          62.0983   87.8846   10.8369 C.2     1  UNL1        0.0541
      9 C          61.5544   86.6364   10.2076 C.2     1  UNL1        0.0041
     10 C          61.8187   85.3017   10.8390 C.2     1  UNL1       -0.0017
     11 C          62.6269   85.2152   12.0997 C.2     1  UNL1        0.0070
     12 C          63.1707   86.4635   12.7290 C.3     1  UNL1        0.1550
     13 O          63.9789   86.3770   13.9897 O.3     1  UNL1       -0.3756
     14 C          62.9064   87.7982   12.0976 C.2     1  UNL1        0.0146
     15 S          63.8467   91.4316   12.9383 S.2     1  UNL1       -0.0734
     16 H          63.5653   86.1384   14.7959 H       1  UNL1        0.2112
     17 C          65.2999   91.4168   15.1817 C.3     1  UNL1        0.1058
     18 C          67.2475   92.9916   15.8720 C.3     1  UNL1        0.0899
     19 N          66.6120   92.0736   14.8704 N.3     1  UNL1       -0.2661
     20 C          67.2886   91.8124   13.5574 C.3     1  UNL1        0.0899
@<TRIPOS>BOND
     1    18    19    1
     2    19    20    1
     3    19    17    1
     4    17     1    1
     5     1     2   ar
     6     2     3   ar
     7     3     4   ar
     8     4     5    2
     9     5     6    1
    10     6     7    2
    11     6     8    1
    12     8     9    2
    13     9    10    1
    14    10    11    2
    15    11    12    1
    16    12    13    1
    17    12    14    1
    18     4    15   ar
    19    15     1   ar
    20    14     3    2
    21    14     8    1
    22    13    16    1
@<TRIPOS>MOLECULE
*****
 20 22 0 0 0
SMALL
GASTEIGER

@<TRIPOS>ATOM
      1 C          63.2192   84.6956   12.9665 C.ar    1  UNL1        0.0247
      2 C          62.1975   85.6658   12.4520 C.ar    1  UNL1        0.0052
      3 C          62.1569   85.5470   10.9573 C.ar    1  UNL1        0.0205
      4 C          63.1536   84.5035   10.5479 C.ar    1  UNL1        0.1025
      5 N          63.3345   84.1672    9.0973 N.am    1  UNL1       -0.1689
      6 C          62.5188   84.8745    8.0561 C.2     1  UNL1        0.2692
      7 O          62.6997   84.5383    6.6055 O.2     1  UNL1       -0.2680
      8 C          61.5221   85.9182    8.4654 C.2     1  UNL1        0.0541
      9 C          60.7063   86.6255    7.4242 C.2     1  UNL1        0.0041
     10 C          59.7097   87.6691    7.8335 C.2     1  UNL1       -0.0017
     11 C          59.5288   88.0053    9.2841 C.2     1  UNL1        0.0070
     12 C          60.3445   87.2980   10.3253 C.3     1  UNL1        0.1550
     13 O          60.1636   87.6342   11.7759 O.3     1  UNL1       -0.3756
     14 C          61.3411   86.2544    9.9160 C.2     1  UNL1        0.0146
     15 S          63.8101   83.9772   11.7897 S.2     1  UNL1       -0.0734
     16 H          60.4473   88.4651   12.1032 H       1  UNL1        0.2112
     17 C          63.5857   84.4813   14.4052 C.3     1  UNL1        0.1058
     18 C          62.9983   85.6331   16.6586 C.3     1  UNL1        0.0899
     19 N          63.6996   85.6545   15.3329 N.3     1  UNL1       -0.2661
     20 C          64.5147   86.8491   14.9348 C.3     1  UNL1        0.0899
@<TRIPOS>BOND
     1    18    19    1
     2    19    20    1
     3    19    17    1
     4    17     1    1
     5     1     2   ar
     6     2     3   ar
     7     3     4   ar
     8     4     5    2
     9     5     6    1
    10     6     7    2
    11     6     8    1
    12     8     9    2
    13     9    10    1
    14    10    11    2
    15    11    12    1
    16    12    13    1
    17    12    14    1
    18     4    15   ar
    19    15     1   ar
    20    14     3    2
    21    14     8    1
    22    13    16    1
@<TRIPOS>MOLECULE
*****
 20 22 0 0 0
SMALL
GASTEIGER

@<TRIPOS>ATOM
      1 C          61.7109   86.7115    9.4960 C.ar    1  UNL1        0.0247
      2 C          62.0375   85.4992   10.3168 C.ar    1  UNL1        0.0052
      3 C          62.6754   85.9618   11.5931 C.ar    1  UNL1        0.0205
      4 C          62.7430   87.4599   11.5612 C.ar    1  UNL1        0.1025
      5 N          63.3386   88.2086   12.7165 N.am    1  UNL1       -0.1689
      6 C          63.8667   87.4592   13.9037 C.2     1  UNL1        0.2692
      7 O          64.4623   88.2079   15.0589 O.2     1  UNL1       -0.2680
      8 C          63.7991   85.9610   13.9356 C.2     1  UNL1        0.0541
      9 C          64.3272   85.2116   15.1228 C.2     1  UNL1        0.0041
     10 C          64.2596   83.7135   15.1548 C.2     1  UNL1       -0.0017
     11 C          63.6639   82.9648   13.9995 C.2     1  UNL1        0.0070
     12 C          63.1359   83.7142   12.8123 C.3     1  UNL1        0.1550
     13 O          62.5403   82.9655   11.6570 O.3     1  UNL1       -0.3756
     14 C          63.2035   85.2123   12.7804 C.2     1  UNL1        0.0146
     15 S          62.1469   87.9233   10.2651 S.2     1  UNL1       -0.0734
     16 H          63.0893   82.4495   11.1001 H       1  UNL1        0.2112
     17 C          61.0621   86.7119    8.1435 C.3     1  UNL1        0.1058
     18 C          58.4779   86.7187    7.8763 C.3     1  UNL1        0.0899
     19 N          59.7805   87.4606    7.9266 N.3     1  UNL1       -0.2661
     20 C          59.8017   88.9512    7.7601 C.3     1  UNL1        0.0899
@<TRIPOS>BOND
     1    18    19    1
     2    19    20    1
     3    19    17    1
     4    17     1    1
     5     1     2   ar
     6     2     3   ar
     7     3     4   ar
     8     4     5    2
     9     5     6    1
    10     6     7    2
    11     6     8    1
    12     8     9    2
    13     9    10    1
    14    10    11    2
    15    11    12    1
    16    12    13    1
    17    12    14    1
    18     4    15   ar
    19    15     1   ar
    20    14     3    2
    21    14     8    1
    22    13    16    1
