@<TRIPOS>MOLECULE
*****
 23 24 0 0 0
SMALL
GASTEIGER

@<TRIPOS>ATOM
      1 C          63.7386   91.1999   12.4624 C.ar    1  UNL1        0.0508
      2 C          64.1325   90.9099   13.8804 C.ar    1  UNL1        0.0147
      3 C          65.4943   91.2982   14.3749 C.ar    1  UNL1        0.0014
      4 C          66.4623   91.9764   13.4515 C.ar    1  UNL1        0.0032
      5 C          66.0685   92.2664   12.0335 C.ar    1  UNL1        0.0384
      6 C          64.7066   91.8781   11.5390 C.ar    1  UNL1        0.0178
      7 C          67.0365   92.9447   11.1099 C.ar    1  UNL1        0.1806
      8 N          68.2702   92.3292   10.5189 N.ar    1  UNL1       -0.1083
      9 N          68.9370   93.3616    9.6590 N.ar    1  UNL1       -0.0229
     10 N          68.1154   94.6153    9.7186 N.ar    1  UNL1       -0.0464
     11 N          66.9409   94.3576   10.6153 N.ar    1  UNL1       -0.2388
     12 H          66.2318   95.0025   10.8398 H       1  UNL1        0.1923
     13 C          62.0316   89.3640   11.7800 C.2     1  UNL1        0.3256
     14 O          63.0483   88.3046   12.0867 O.2     1  UNL1       -0.2627
     15 N          62.3767   90.8116   11.9679 N.am    1  UNL1       -0.2750
     16 H          61.7094   91.5069   11.7666 H       1  UNL1        0.1554
     17 C          60.6697   88.9757   11.2855 C.2     1  UNL1        0.3958
     18 O          59.5585   88.7312   12.2629 O.2     1  UNL1       -0.2397
     19 O          60.4192   88.8320    9.8135 O.3     1  UNL1       -0.4423
     20 C          59.9198   87.5298    9.2614 C.3     1  UNL1        0.2089
     21 C          60.7959   86.3130    9.3013 C.3     1  UNL1        0.0475
     22 C          63.0018   85.3073    8.3670 C.3     1  UNL1        0.0001
     23 C          62.2647   86.4369    9.0234 C.3     1  UNL1        0.0038
@<TRIPOS>BOND
     1    22    23    1
     2    23    21    1
     3    21    20    1
     4    20    19    1
     5    19    17    1
     6    17    18    2
     7    17    13    1
     8    13    14    2
     9    13    15   am
    10    15     1    1
    11     1     2   ar
    12     2     3   ar
    13     3     4   ar
    14     4     5   ar
    15     5     7    1
    16     7     8   ar
    17     8     9   ar
    18     9    10   ar
    19    10    11   ar
    20     5     6   ar
    21     6     1   ar
    22    11     7   ar
    23    15    16    1
    24    11    12    1
@<TRIPOS>MOLECULE
*****
 23 24 0 0 0
SMALL
GASTEIGER

@<TRIPOS>ATOM
      1 C          63.9636   86.0581   15.6292 C.ar    1  UNL1        0.0508
      2 C          63.2461   86.2239   16.9360 C.ar    1  UNL1        0.0147
      3 C          62.8678   87.5940   17.4153 C.ar    1  UNL1        0.0014
      4 C          63.2069   88.7982   16.5879 C.ar    1  UNL1        0.0032
      5 C          63.9244   88.6324   15.2811 C.ar    1  UNL1        0.0384
      6 C          64.3027   87.2624   14.8018 C.ar    1  UNL1        0.0178
      7 C          64.2636   89.8367   14.4536 C.ar    1  UNL1        0.1806
      8 N          63.9160   90.0399   13.0087 N.ar    1  UNL1       -0.1083
      9 N          64.4474   91.3780   12.5878 N.ar    1  UNL1       -0.0229
     10 N          65.1235   92.0018   13.7727 N.ar    1  UNL1       -0.0464
     11 N          65.0098   91.0492   14.9258 N.ar    1  UNL1       -0.2388
     12 H          65.3631   91.1943   15.8332 H       1  UNL1        0.1923
     13 C          63.5449   84.0264   14.0650 C.2     1  UNL1        0.3256
     14 O          62.3695   84.7349   13.4594 O.2     1  UNL1       -0.2627
     15 N          64.3419   84.6880   15.1498 N.am    1  UNL1       -0.2750
     16 H          65.1133   84.2230   15.5473 H       1  UNL1        0.1554
     17 C          63.9232   82.6563   13.5856 C.2     1  UNL1        0.3958
     18 O          63.6754   81.4616   14.4580 O.2     1  UNL1       -0.2397
     19 O          64.5492   82.4811   12.2338 O.3     1  UNL1       -0.4423
     20 C          63.6926   82.4989   11.0025 C.3     1  UNL1        0.2089
     21 C          64.0206   83.4312    9.8742 C.3     1  UNL1        0.0475
     22 C          63.0252   85.1437    8.1928 C.3     1  UNL1        0.0001
     23 C          63.1318   84.6053    9.5889 C.3     1  UNL1        0.0038
@<TRIPOS>BOND
     1    22    23    1
     2    23    21    1
     3    21    20    1
     4    20    19    1
     5    19    17    1
     6    17    18    2
     7    17    13    1
     8    13    14    2
     9    13    15   am
    10    15     1    1
    11     1     2   ar
    12     2     3   ar
    13     3     4   ar
    14     4     5   ar
    15     5     7    1
    16     7     8   ar
    17     8     9   ar
    18     9    10   ar
    19    10    11   ar
    20     5     6   ar
    21     6     1   ar
    22    11     7   ar
    23    15    16    1
    24    11    12    1
@<TRIPOS>MOLECULE
*****
 23 24 0 0 0
SMALL
GASTEIGER

@<TRIPOS>ATOM
      1 C          64.0318   88.1652   15.3357 C.ar    1  UNL1        0.0508
      2 C          63.3469   88.3482   16.6576 C.ar    1  UNL1        0.0147
      3 C          62.7768   87.1622   17.3775 C.ar    1  UNL1        0.0014
      4 C          62.8916   85.7931   16.7756 C.ar    1  UNL1        0.0032
      5 C          63.5764   85.6100   15.4537 C.ar    1  UNL1        0.0384
      6 C          64.1465   86.7961   14.7337 C.ar    1  UNL1        0.0178
      7 C          63.6912   84.2409   14.8517 C.ar    1  UNL1        0.1806
      8 N          64.3942   83.8965   13.5721 N.ar    1  UNL1       -0.1083
      9 N          64.2606   82.4186   13.3531 N.ar    1  UNL1       -0.0229
     10 N          63.4750   81.8496   14.4974 N.ar    1  UNL1       -0.0464
     11 N          63.1231   82.9759   15.4235 N.ar    1  UNL1       -0.2388
     12 H          62.6095   82.8984   16.2598 H       1  UNL1        0.1923
     13 C          63.7542   90.1172   13.6438 C.2     1  UNL1        0.3256
     14 O          62.3364   89.6973   13.3918 O.2     1  UNL1       -0.2627
     15 N          64.6019   89.3512   14.6157 N.am    1  UNL1       -0.2750
     16 H          65.5324   89.6268   14.7811 H       1  UNL1        0.1554
     17 C          64.3243   91.3033   12.9239 C.2     1  UNL1        0.3958
     18 O          64.0998   91.4648   11.4496 O.2     1  UNL1       -0.2397
     19 O          65.1190   92.3277   13.6783 O.3     1  UNL1       -0.4423
     20 C          66.6167   92.2475   13.7009 C.3     1  UNL1        0.2089
     21 C          67.3180   91.6511   14.8851 C.3     1  UNL1        0.0475
     22 C          68.7259   93.6197   15.8297 C.3     1  UNL1        0.0001
     23 C          67.7219   92.5245   16.0358 C.3     1  UNL1        0.0038
@<TRIPOS>BOND
     1    22    23    1
     2    23    21    1
     3    21    20    1
     4    20    19    1
     5    19    17    1
     6    17    18    2
     7    17    13    1
     8    13    14    2
     9    13    15   am
    10    15     1    1
    11     1     2   ar
    12     2     3   ar
    13     3     4   ar
    14     4     5   ar
    15     5     7    1
    16     7     8   ar
    17     8     9   ar
    18     9    10   ar
    19    10    11   ar
    20     5     6   ar
    21     6     1   ar
    22    11     7   ar
    23    15    16    1
    24    11    12    1
@<TRIPOS>MOLECULE
*****
 23 24 0 0 0
SMALL
GASTEIGER

@<TRIPOS>ATOM
      1 C          64.2115   89.1078   14.1300 C.ar    1  UNL1        0.0508
      2 C          63.3928   89.5884   12.9686 C.ar    1  UNL1        0.0147
      3 C          63.6753   90.9276   12.3549 C.ar    1  UNL1        0.0014
      4 C          64.7766   91.7862   12.9025 C.ar    1  UNL1        0.0032
      5 C          65.5953   91.3056   14.0638 C.ar    1  UNL1        0.0384
      6 C          65.3128   89.9664   14.6775 C.ar    1  UNL1        0.0178
      7 C          66.6967   92.1643   14.6114 C.ar    1  UNL1        0.1806
      8 N          68.0908   92.2638   14.0667 N.ar    1  UNL1       -0.1083
      9 N          68.8530   93.2351   14.9185 N.ar    1  UNL1       -0.0229
     10 N          67.9300   93.7359   15.9896 N.ar    1  UNL1       -0.0464
     11 N          66.5973   93.0741   15.7998 N.ar    1  UNL1       -0.2388
     12 H          65.7978   93.2125   16.3574 H       1  UNL1        0.1923
     13 C          63.4057   87.6819   16.1468 C.2     1  UNL1        0.3256
     14 O          63.1650   88.9346   16.9362 O.2     1  UNL1       -0.2627
     15 N          63.9289   87.7686   14.7437 N.am    1  UNL1       -0.2750
     16 H          64.0869   86.9465   14.2256 H       1  UNL1        0.1554
     17 C          63.1231   86.3427   16.7605 C.2     1  UNL1        0.3958
     18 O          62.0472   86.2045   17.7965 O.2     1  UNL1       -0.2397
     19 O          63.9166   85.1418   16.3382 O.3     1  UNL1       -0.4423
     20 C          63.5402   84.3940   15.0936 C.3     1  UNL1        0.2089
     21 C          62.4723   83.3419   15.1447 C.3     1  UNL1        0.0475
     22 C          61.4100   81.1791   14.1731 C.3     1  UNL1        0.0001
     23 C          62.3625   82.3305   14.0424 C.3     1  UNL1        0.0038
@<TRIPOS>BOND
     1    22    23    1
     2    23    21    1
     3    21    20    1
     4    20    19    1
     5    19    17    1
     6    17    18    2
     7    17    13    1
     8    13    14    2
     9    13    15   am
    10    15     1    1
    11     1     2   ar
    12     2     3   ar
    13     3     4   ar
    14     4     5   ar
    15     5     7    1
    16     7     8   ar
    17     8     9   ar
    18     9    10   ar
    19    10    11   ar
    20     5     6   ar
    21     6     1   ar
    22    11     7   ar
    23    15    16    1
    24    11    12    1
@<TRIPOS>MOLECULE
*****
 23 24 0 0 0
SMALL
GASTEIGER

@<TRIPOS>ATOM
      1 C          62.7013   84.4528   11.3368 C.ar    1  UNL1        0.0508
      2 C          63.6437   83.7804   10.3830 C.ar    1  UNL1        0.0147
      3 C          63.7031   84.2221    8.9508 C.ar    1  UNL1        0.0014
      4 C          62.8201   85.3363    8.4723 C.ar    1  UNL1        0.0032
      5 C          61.8777   86.0087    9.4260 C.ar    1  UNL1        0.0384
      6 C          61.8183   85.5670   10.8583 C.ar    1  UNL1        0.0178
      7 C          60.9947   87.1229    8.9476 C.ar    1  UNL1        0.1806
      8 N          60.0214   87.0494    7.8085 N.ar    1  UNL1       -0.1083
      9 N          59.3551   88.3872    7.6811 N.ar    1  UNL1       -0.0229
     10 N          59.9166   89.2875    8.7414 N.ar    1  UNL1       -0.0464
     11 N          60.9299   88.5061    9.5240 N.ar    1  UNL1       -0.2388
     12 H          61.4595   88.8422   10.2829 H       1  UNL1        0.1923
     13 C          63.0838   84.9412   13.8597 C.2     1  UNL1        0.3256
     14 O          63.5851   86.3131   13.5181 O.2     1  UNL1       -0.2627
     15 N          62.6419   84.0111   12.7690 N.am    1  UNL1       -0.2750
     16 H          62.3128   83.1107   12.9932 H       1  UNL1        0.1554
     17 C          63.0244   84.4995   15.2920 C.2     1  UNL1        0.3958
     18 O          63.7972   83.2937   15.7376 O.2     1  UNL1       -0.2397
     19 O          62.1920   85.2637   16.2786 O.3     1  UNL1       -0.4423
     20 C          62.8505   85.9755   17.4230 C.3     1  UNL1        0.2089
     21 C          62.7943   87.4720   17.5076 C.3     1  UNL1        0.0475
     22 C          63.2491   89.8034   16.4549 C.3     1  UNL1        0.0001
     23 C          63.2715   88.3067   16.3563 C.3     1  UNL1        0.0038
@<TRIPOS>BOND
     1    22    23    1
     2    23    21    1
     3    21    20    1
     4    20    19    1
     5    19    17    1
     6    17    18    2
     7    17    13    1
     8    13    14    2
     9    13    15   am
    10    15     1    1
    11     1     2   ar
    12     2     3   ar
    13     3     4   ar
    14     4     5   ar
    15     5     7    1
    16     7     8   ar
    17     8     9   ar
    18     9    10   ar
    19    10    11   ar
    20     5     6   ar
    21     6     1   ar
    22    11     7   ar
    23    15    16    1
    24    11    12    1
@<TRIPOS>MOLECULE
*****
 23 24 0 0 0
SMALL
GASTEIGER

@<TRIPOS>ATOM
      1 C          63.6538   85.4630   15.1796 C.ar    1  UNL1        0.0508
      2 C          62.9989   85.0515   16.4648 C.ar    1  UNL1        0.0147
      3 C          62.6268   86.0886   17.4826 C.ar    1  UNL1        0.0014
      4 C          62.9097   87.5372   17.2152 C.ar    1  UNL1        0.0032
      5 C          63.5646   87.9487   15.9301 C.ar    1  UNL1        0.0384
      6 C          63.9367   86.9116   14.9123 C.ar    1  UNL1        0.0178
      7 C          63.8475   89.3973   15.6626 C.ar    1  UNL1        0.1806
      8 N          64.6535   89.9421   14.5209 N.ar    1  UNL1       -0.1083
      9 N          64.6783   91.4370   14.6425 N.ar    1  UNL1       -0.0229
     10 N          63.8875   91.8160   15.8596 N.ar    1  UNL1       -0.0464
     11 N          63.3741   90.5555   16.4900 N.ar    1  UNL1       -0.2388
     12 H          62.8232   90.4983   17.3039 H       1  UNL1        0.1923
     13 C          63.2644   84.3328   12.8729 C.2     1  UNL1        0.3256
     14 O          62.1307   85.2769   12.6018 O.2     1  UNL1       -0.2627
     15 N          64.0259   84.4258   14.1618 N.am    1  UNL1       -0.2750
     16 H          64.7700   83.8062   14.3398 H       1  UNL1        0.1554
     17 C          63.6364   83.2956   11.8551 C.2     1  UNL1        0.3958
     18 O          64.9068   83.4370   11.0702 O.2     1  UNL1       -0.2397
     19 O          62.7381   82.1171   11.6223 O.3     1  UNL1       -0.4423
     20 C          63.0731   80.7872   12.2297 C.3     1  UNL1        0.2089
     21 C          62.5119   80.4117   13.5691 C.3     1  UNL1        0.0475
     22 C          59.9860   80.4998   14.1709 C.3     1  UNL1        0.0001
     23 C          61.3340   81.1562   14.1243 C.3     1  UNL1        0.0038
@<TRIPOS>BOND
     1    22    23    1
     2    23    21    1
     3    21    20    1
     4    20    19    1
     5    19    17    1
     6    17    18    2
     7    17    13    1
     8    13    14    2
     9    13    15   am
    10    15     1    1
    11     1     2   ar
    12     2     3   ar
    13     3     4   ar
    14     4     5   ar
    15     5     7    1
    16     7     8   ar
    17     8     9   ar
    18     9    10   ar
    19    10    11   ar
    20     5     6   ar
    21     6     1   ar
    22    11     7   ar
    23    15    16    1
    24    11    12    1
@<TRIPOS>MOLECULE
*****
 23 24 0 0 0
SMALL
GASTEIGER

@<TRIPOS>ATOM
      1 C          64.0783   88.4267   15.3571 C.ar    1  UNL1        0.0508
      2 C          63.3602   88.5507   16.6681 C.ar    1  UNL1        0.0147
      3 C          62.8018   87.3291   17.3359 C.ar    1  UNL1        0.0014
      4 C          62.9615   85.9835   16.6927 C.ar    1  UNL1        0.0032
      5 C          63.6796   85.8595   15.3816 C.ar    1  UNL1        0.0384
      6 C          64.2380   87.0811   14.7138 C.ar    1  UNL1        0.0178
      7 C          63.8394   84.5139   14.7383 C.ar    1  UNL1        0.1806
      8 N          63.3693   83.2057   15.3021 N.ar    1  UNL1       -0.1083
      9 N          63.7366   82.1235   14.3305 N.ar    1  UNL1       -0.0229
     10 N          64.4337   82.7628   13.1663 N.ar    1  UNL1       -0.0464
     11 N          64.4972   84.2401   13.4183 N.ar    1  UNL1       -0.2388
     12 H          64.8999   84.9121   12.8221 H       1  UNL1        0.1923
     13 C          63.9253   90.2526   13.5152 C.2     1  UNL1        0.3256
     14 O          62.6554   89.6354   13.0088 O.2     1  UNL1       -0.2627
     15 N          64.6368   89.6482   14.6893 N.am    1  UNL1       -0.2750
     16 H          65.4702   90.0533   15.0216 H       1  UNL1        0.1554
     17 C          64.4837   91.4742   12.8474 C.2     1  UNL1        0.3958
     18 O          65.2200   92.5007   13.6562 O.2     1  UNL1       -0.2397
     19 O          64.3059   91.6692   11.3708 O.3     1  UNL1       -0.4423
     20 C          65.1918   92.6253   10.6285 C.3     1  UNL1        0.2089
     21 C          66.6612   92.3483   10.5099 C.3     1  UNL1        0.0475
     22 C          68.6681   92.5428    8.8714 C.3     1  UNL1        0.0001
     23 C          67.5072   93.1710    9.5840 C.3     1  UNL1        0.0038
@<TRIPOS>BOND
     1    22    23    1
     2    23    21    1
     3    21    20    1
     4    20    19    1
     5    19    17    1
     6    17    18    2
     7    17    13    1
     8    13    14    2
     9    13    15   am
    10    15     1    1
    11     1     2   ar
    12     2     3   ar
    13     3     4   ar
    14     4     5   ar
    15     5     7    1
    16     7     8   ar
    17     8     9   ar
    18     9    10   ar
    19    10    11   ar
    20     5     6   ar
    21     6     1   ar
    22    11     7   ar
    23    15    16    1
    24    11    12    1
@<TRIPOS>MOLECULE
*****
 23 24 0 0 0
SMALL
GASTEIGER

@<TRIPOS>ATOM
      1 C          62.7239   84.7007   10.8216 C.ar    1  UNL1        0.0508
      2 C          63.1061   84.6145    9.3738 C.ar    1  UNL1        0.0147
      3 C          62.7135   85.7105    8.4279 C.ar    1  UNL1        0.0014
      4 C          61.9387   86.8927    8.9299 C.ar    1  UNL1        0.0032
      5 C          61.5565   86.9789   10.3778 C.ar    1  UNL1        0.0384
      6 C          61.9491   85.8829   11.3237 C.ar    1  UNL1        0.0178
      7 C          60.7817   88.1612   10.8799 C.ar    1  UNL1        0.1806
      8 N          60.8871   89.5668   10.3668 N.ar    1  UNL1       -0.1083
      9 N          59.9361   90.4197   11.1530 N.ar    1  UNL1       -0.0229
     10 N          59.2428   89.5412   12.1519 N.ar    1  UNL1       -0.0464
     11 N          59.7655   88.1454   11.9830 N.ar    1  UNL1       -0.2388
     12 H          59.4899   87.3572   12.5047 H       1  UNL1        0.1923
     13 C          63.2973   83.9022   13.2265 C.2     1  UNL1        0.3256
     14 O          63.0856   85.2958   13.7397 O.2     1  UNL1       -0.2627
     15 N          63.1165   83.6047   11.7675 N.am    1  UNL1       -0.2750
     16 H          63.2554   82.6901   11.4307 H       1  UNL1        0.1554
     17 C          63.6899   82.8062   14.1724 C.2     1  UNL1        0.3958
     18 O          64.0320   83.1311   15.5963 O.2     1  UNL1       -0.2397
     19 O          63.7404   81.3853   13.6944 O.3     1  UNL1       -0.4423
     20 C          62.4778   80.6863   13.2855 C.3     1  UNL1        0.2089
     21 C          61.1845   81.0111   13.9724 C.3     1  UNL1        0.0475
     22 C          58.7148   80.3027   14.3586 C.3     1  UNL1        0.0001
     23 C          60.1597   79.9373   14.1886 C.3     1  UNL1        0.0038
@<TRIPOS>BOND
     1    22    23    1
     2    23    21    1
     3    21    20    1
     4    20    19    1
     5    19    17    1
     6    17    18    2
     7    17    13    1
     8    13    14    2
     9    13    15   am
    10    15     1    1
    11     1     2   ar
    12     2     3   ar
    13     3     4   ar
    14     4     5   ar
    15     5     7    1
    16     7     8   ar
    17     8     9   ar
    18     9    10   ar
    19    10    11   ar
    20     5     6   ar
    21     6     1   ar
    22    11     7   ar
    23    15    16    1
    24    11    12    1
@<TRIPOS>MOLECULE
*****
 23 24 0 0 0
SMALL
GASTEIGER

@<TRIPOS>ATOM
      1 C          64.0366   88.1511   15.2524 C.ar    1  UNL1        0.0508
      2 C          63.3925   88.3868   16.5863 C.ar    1  UNL1        0.0147
      3 C          62.8372   87.2316   17.3656 C.ar    1  UNL1        0.0014
      4 C          62.9260   85.8408   16.8109 C.ar    1  UNL1        0.0032
      5 C          63.5701   85.6051   15.4770 C.ar    1  UNL1        0.0384
      6 C          64.1254   86.7603   14.6977 C.ar    1  UNL1        0.0178
      7 C          63.6590   84.2143   14.9222 C.ar    1  UNL1        0.1806
      8 N          64.4606   83.7913   13.7270 N.ar    1  UNL1       -0.1083
      9 N          64.2589   82.3179   13.5313 N.ar    1  UNL1       -0.0229
     10 N          63.3326   81.8302   14.6057 N.ar    1  UNL1       -0.0464
     11 N          62.9619   83.0022   15.4653 N.ar    1  UNL1       -0.2388
     12 H          62.3657   82.9799   16.2484 H       1  UNL1        0.1923
     13 C          63.6975   90.0980   13.5657 C.2     1  UNL1        0.3256
     14 O          62.2478   89.7345   13.4377 O.2     1  UNL1       -0.2627
     15 N          64.5919   89.3062   14.4731 N.am    1  UNL1       -0.2750
     16 H          65.5433   89.5448   14.5571 H       1  UNL1        0.1554
     17 C          64.2528   91.2531   12.7865 C.2     1  UNL1        0.3958
     18 O          64.8673   92.4170   13.5059 O.2     1  UNL1       -0.2397
     19 O          64.1936   91.2443   11.2876 O.3     1  UNL1       -0.4423
     20 C          62.8665   91.2782   10.5893 C.3     1  UNL1        0.2089
     21 C          62.3119   90.0289    9.9715 C.3     1  UNL1        0.0475
     22 C          60.2241   89.0453    8.7784 C.3     1  UNL1        0.0001
     23 C          60.8284   89.8147    9.9156 C.3     1  UNL1        0.0038
@<TRIPOS>BOND
     1    22    23    1
     2    23    21    1
     3    21    20    1
     4    20    19    1
     5    19    17    1
     6    17    18    2
     7    17    13    1
     8    13    14    2
     9    13    15   am
    10    15     1    1
    11     1     2   ar
    12     2     3   ar
    13     3     4   ar
    14     4     5   ar
    15     5     7    1
    16     7     8   ar
    17     8     9   ar
    18     9    10   ar
    19    10    11   ar
    20     5     6   ar
    21     6     1   ar
    22    11     7   ar
    23    15    16    1
    24    11    12    1
