@<TRIPOS>MOLECULE
*****
 32 34 0 0 0
SMALL
GASTEIGER

@<TRIPOS>ATOM
      1 O          64.1362   90.1417   15.6152 O.3     1  UNL1       -0.4361
      2 C          64.3165   90.8573   14.3092 C.ar    1  UNL1        0.1516
      3 C          63.3821   90.5830   13.1684 C.ar    1  UNL1        0.0391
      4 C          63.5624   91.2987   11.8625 C.ar    1  UNL1        0.0227
      5 C          64.6772   92.2886   11.6975 C.ar    1  UNL1        0.0876
      6 N          65.0995   93.1404   10.5372 N.ar    1  UNL1       -0.2427
      7 C          66.2950   93.9411   10.9611 C.ar    1  UNL1        0.0878
      8 S          66.6115   93.5843   12.3832 S.2     1  UNL1       -0.0708
      9 C          65.6116   92.5629   12.8383 C.ar    1  UNL1        0.0550
     10 C          65.4313   91.8473   14.1442 C.ar    1  UNL1        0.1134
     11 C          66.3657   92.1216   15.2851 C.3     1  UNL1        0.4219
     12 F          67.3001   92.3960   16.4260 F       1  UNL1       -0.1657
     13 F          67.3826   91.2044   14.6727 F       1  UNL1       -0.1657
     14 F          65.3489   93.0387   15.8974 F       1  UNL1       -0.1657
     15 C          67.0427   94.9259   10.1118 C.3     1  UNL1        0.0466
     16 C          67.9495   94.4388    9.0208 C.3     1  UNL1        0.0069
     17 C          66.8836   96.3977   10.3537 C.3     1  UNL1        0.0069
     18 C          63.5057   85.6864   15.6709 C.ar    1  UNL1        0.0191
     19 C          64.3018   86.3174   14.5673 C.ar    1  UNL1        0.0063
     20 C          64.5120   87.8025   14.5487 C.ar    1  UNL1        0.0581
     21 C          63.9261   88.6566   15.6337 C.ar    1  UNL1        0.2297
     22 N          63.1299   88.0256   16.7373 N.ar    1  UNL1       -0.2098
     23 C          62.9198   86.5404   16.7559 C.ar    1  UNL1        0.1020
     24 C          63.7222   83.3688   14.5170 C.2     1  UNL1       -0.0069
     25 C          63.2955   84.2013   15.6895 C.2     1  UNL1       -0.0014
     26 C          63.5120   81.8837   14.5355 C.3     1  UNL1        0.0939
     27 C          64.6433   80.9618   14.1886 C.3     1  UNL1        0.0262
     28 C          59.8656   80.3559   14.1892 C.3     1  UNL1        0.0946
     29 C          61.2070   80.9191   13.8237 C.2     1  UNL1        0.2232
     30 O          61.5848   81.0807   12.3811 O.2     1  UNL1       -0.2751
     31 N          62.1706   81.3206   14.9010 N.am    1  UNL1       -0.3022
     32 H          61.9226   81.2145   15.8478 H       1  UNL1        0.1497
@<TRIPOS>BOND
     1    28    29    1
     2    29    30    2
     3    29    31   am
     4    31    26    1
     5    26    27    1
     6    26    24    1
     7    24    25    2
     8    25    18    1
     9    18    19   ar
    10    19    20   ar
    11    20    21   ar
    12    21     1    1
    13     1     2    1
    14     2     3   ar
    15     3     4   ar
    16     4     5   ar
    17     5     6   ar
    18     6     7   ar
    19     7    15    1
    20    15    16    1
    21    15    17    1
    22     7     8   ar
    23     8     9   ar
    24     9    10   ar
    25    10    11    1
    26    11    12    1
    27    11    13    1
    28    11    14    1
    29    21    22   ar
    30    22    23   ar
    31    23    18   ar
    32    10     2   ar
    33     9     5   ar
    34    31    32    1
@<TRIPOS>MOLECULE
*****
 32 34 0 0 0
SMALL
GASTEIGER

@<TRIPOS>ATOM
      1 O          64.3554   89.5643   15.4132 O.3     1  UNL1       -0.4361
      2 C          64.4658   90.4156   14.1831 C.ar    1  UNL1        0.1516
      3 C          63.6015   90.1275   12.9916 C.ar    1  UNL1        0.0391
      4 C          63.7119   90.9787   11.7614 C.ar    1  UNL1        0.0227
      5 C          64.6867   92.1182   11.7229 C.ar    1  UNL1        0.0876
      6 N          65.0154   93.1222   10.6581 N.ar    1  UNL1       -0.2427
      7 C          66.0830   94.0309   11.1916 C.ar    1  UNL1        0.0878
      8 S          66.4140   93.5884   12.5862 S.2     1  UNL1       -0.0708
      9 C          65.5510   92.4063   12.9145 C.ar    1  UNL1        0.0550
     10 C          65.4406   91.5550   14.1446 C.ar    1  UNL1        0.1134
     11 C          66.3049   91.8432   15.3362 C.3     1  UNL1        0.4219
     12 F          67.1693   92.1312   16.5278 F       1  UNL1       -0.1657
     13 F          65.2013   92.6609   15.9390 F       1  UNL1       -0.1657
     14 F          67.4085   91.0254   14.7334 F       1  UNL1       -0.1657
     15 C          66.7095   95.1802   10.4592 C.3     1  UNL1        0.0466
     16 C          67.6659   94.9202    9.3333 C.3     1  UNL1        0.0069
     17 C          66.3798   96.5896   10.8528 C.3     1  UNL1        0.0069
     18 C          63.3257   85.1993   15.0435 C.ar    1  UNL1        0.0191
     19 C          63.1321   85.9073   16.3517 C.ar    1  UNL1        0.0063
     20 C          63.4754   87.3623   16.4749 C.ar    1  UNL1        0.0581
     21 C          64.0121   88.1093   15.2900 C.ar    1  UNL1        0.2297
     22 N          64.2057   87.4013   13.9819 N.ar    1  UNL1       -0.2098
     23 C          63.8625   85.9462   13.8587 C.ar    1  UNL1        0.1020
     24 C          62.4579   83.2048   13.6227 C.2     1  UNL1       -0.0069
     25 C          62.9825   83.7443   14.9203 C.2     1  UNL1       -0.0014
     26 C          62.1147   81.7498   13.4995 C.3     1  UNL1        0.0939
     27 C          61.2062   81.1058   14.5045 C.3     1  UNL1        0.0262
     28 C          63.6601   80.8022    9.9691 C.3     1  UNL1        0.0946
     29 C          63.0949   81.6132   11.0973 C.2     1  UNL1        0.2232
     30 O          62.9446   83.0985   10.9514 O.2     1  UNL1       -0.2751
     31 N          62.6799   80.9388   12.3713 N.am    1  UNL1       -0.3022
     32 H          62.7785   79.9639   12.4669 H       1  UNL1        0.1497
@<TRIPOS>BOND
     1    28    29    1
     2    29    30    2
     3    29    31   am
     4    31    26    1
     5    26    27    1
     6    26    24    1
     7    24    25    2
     8    25    18    1
     9    18    19   ar
    10    19    20   ar
    11    20    21   ar
    12    21     1    1
    13     1     2    1
    14     2     3   ar
    15     3     4   ar
    16     4     5   ar
    17     5     6   ar
    18     6     7   ar
    19     7    15    1
    20    15    16    1
    21    15    17    1
    22     7     8   ar
    23     8     9   ar
    24     9    10   ar
    25    10    11    1
    26    11    12    1
    27    11    13    1
    28    11    14    1
    29    21    22   ar
    30    22    23   ar
    31    23    18   ar
    32    10     2   ar
    33     9     5   ar
    34    31    32    1
@<TRIPOS>MOLECULE
*****
 32 34 0 0 0
SMALL
GASTEIGER

@<TRIPOS>ATOM
      1 O          58.9668   88.8344    7.0037 O.3     1  UNL1       -0.4361
      2 C          59.8028   88.6838    8.2400 C.ar    1  UNL1        0.1516
      3 C          60.1111   89.8823    9.0875 C.ar    1  UNL1        0.0391
      4 C          60.9472   89.7317   10.3238 C.ar    1  UNL1        0.0227
      5 C          61.4748   88.3825   10.7126 C.ar    1  UNL1        0.0876
      6 N          62.3189   87.9294   11.8668 N.ar    1  UNL1       -0.2427
      7 C          62.5322   86.4507   11.7325 C.ar    1  UNL1        0.0878
      8 S          61.8200   85.9900   10.4954 S.2     1  UNL1       -0.0708
      9 C          61.1665   87.1839    9.8650 C.ar    1  UNL1        0.0550
     10 C          60.3305   87.3346    8.6288 C.ar    1  UNL1        0.1134
     11 C          60.0221   86.1360    7.7812 C.3     1  UNL1        0.4219
     12 F          59.7136   84.9374    6.9337 F       1  UNL1       -0.1657
     13 F          61.4761   86.0060    7.4360 F       1  UNL1       -0.1657
     14 F          58.5682   86.2660    8.1264 F       1  UNL1       -0.1657
     15 C          63.3195   85.5847   12.6708 C.3     1  UNL1        0.0466
     16 C          63.9483   86.1828   13.8943 C.3     1  UNL1        0.0069
     17 C          63.4781   84.1207   12.3855 C.3     1  UNL1        0.0069
     18 C          59.7815   92.2031    4.1335 C.ar    1  UNL1        0.0191
     19 C          58.3816   91.9411    4.6044 C.ar    1  UNL1        0.0063
     20 C          58.1100   90.8182    5.5611 C.ar    1  UNL1        0.0581
     21 C          59.2383   89.9573    6.0470 C.ar    1  UNL1        0.2297
     22 N          60.6381   90.2194    5.5760 N.ar    1  UNL1       -0.2098
     23 C          60.9097   91.3424    4.6192 C.ar    1  UNL1        0.1020
     24 C          59.7190   93.1698    1.7228 C.2     1  UNL1       -0.0069
     25 C          60.0530   93.3260    3.1767 C.2     1  UNL1       -0.0014
     26 C          59.9905   94.2927    0.7660 C.3     1  UNL1        0.0939
     27 C          59.7981   95.7144    1.2042 C.3     1  UNL1        0.0262
     28 C          62.3641   93.3913   -2.2841 C.3     1  UNL1        0.0946
     29 C          61.9001   93.6900   -0.8893 C.2     1  UNL1        0.2232
     30 O          62.8817   93.6848    0.2449 O.2     1  UNL1       -0.2751
     31 N          60.4545   93.9940   -0.6288 N.am    1  UNL1       -0.3022
     32 H          59.8102   93.9974   -1.3732 H       1  UNL1        0.1497
@<TRIPOS>BOND
     1    28    29    1
     2    29    30    2
     3    29    31   am
     4    31    26    1
     5    26    27    1
     6    26    24    1
     7    24    25    2
     8    25    18    1
     9    18    19   ar
    10    19    20   ar
    11    20    21   ar
    12    21     1    1
    13     1     2    1
    14     2     3   ar
    15     3     4   ar
    16     4     5   ar
    17     5     6   ar
    18     6     7   ar
    19     7    15    1
    20    15    16    1
    21    15    17    1
    22     7     8   ar
    23     8     9   ar
    24     9    10   ar
    25    10    11    1
    26    11    12    1
    27    11    13    1
    28    11    14    1
    29    21    22   ar
    30    22    23   ar
    31    23    18   ar
    32    10     2   ar
    33     9     5   ar
    34    31    32    1
@<TRIPOS>MOLECULE
*****
 32 34 0 0 0
SMALL
GASTEIGER

@<TRIPOS>ATOM
      1 O          63.9829   88.7188   14.4634 O.3     1  UNL1       -0.4361
      2 C          63.6080   87.5788   13.5634 C.ar    1  UNL1        0.1516
      3 C          63.0488   87.8531   12.1989 C.ar    1  UNL1        0.0391
      4 C          62.6738   86.7131   11.2989 C.ar    1  UNL1        0.0227
      5 C          62.8581   85.2989   11.7635 C.ar    1  UNL1        0.0876
      6 N          62.5806   83.9812   11.1028 N.ar    1  UNL1       -0.2427
      7 C          62.9683   82.8925   12.0591 C.ar    1  UNL1        0.0878
      8 S          63.4854   83.5373   13.3108 S.2     1  UNL1       -0.0708
      9 C          63.4173   85.0246   13.1281 C.ar    1  UNL1        0.0550
     10 C          63.7922   86.1646   14.0280 C.ar    1  UNL1        0.1134
     11 C          64.3514   85.8903   15.3926 C.3     1  UNL1        0.4219
     12 F          64.9107   85.6160   16.7572 F       1  UNL1       -0.1657
     13 F          62.9597   85.7602   15.9368 F       1  UNL1       -0.1657
     14 F          65.7432   86.0204   14.8484 F       1  UNL1       -0.1657
     15 C          62.8582   81.4178   11.8078 C.3     1  UNL1        0.0466
     16 C          62.4719   80.4935   12.9242 C.3     1  UNL1        0.0069
     17 C          63.1344   80.8673   10.4400 C.3     1  UNL1        0.0069
     18 C          65.5138   92.5664   12.7019 C.ar    1  UNL1        0.0191
     19 C          64.3408   91.8702   12.0778 C.ar    1  UNL1        0.0063
     20 C          63.8306   90.5877   12.6649 C.ar    1  UNL1        0.0581
     21 C          64.4932   90.0013   13.8762 C.ar    1  UNL1        0.2297
     22 N          65.6661   90.6975   14.5003 N.ar    1  UNL1       -0.2098
     23 C          66.1764   91.9801   13.9131 C.ar    1  UNL1        0.1020
     24 C          65.2992   94.4897   10.9686 C.2     1  UNL1       -0.0069
     25 C          66.0241   93.8489   12.1148 C.2     1  UNL1       -0.0014
     26 C          65.8094   95.7722   10.3814 C.3     1  UNL1        0.0939
     27 C          66.8181   96.5913   11.1311 C.3     1  UNL1        0.0262
     28 C          65.7073   96.6223    6.5062 C.3     1  UNL1        0.0946
     29 C          66.2056   96.1588    7.8430 C.2     1  UNL1        0.2232
     30 O          67.5984   95.6185    7.9780 O.2     1  UNL1       -0.2751
     31 N          65.3111   96.2357    9.0447 N.am    1  UNL1       -0.3022
     32 H          64.3970   96.5904    8.9560 H       1  UNL1        0.1497
@<TRIPOS>BOND
     1    28    29    1
     2    29    30    2
     3    29    31   am
     4    31    26    1
     5    26    27    1
     6    26    24    1
     7    24    25    2
     8    25    18    1
     9    18    19   ar
    10    19    20   ar
    11    20    21   ar
    12    21     1    1
    13     1     2    1
    14     2     3   ar
    15     3     4   ar
    16     4     5   ar
    17     5     6   ar
    18     6     7   ar
    19     7    15    1
    20    15    16    1
    21    15    17    1
    22     7     8   ar
    23     8     9   ar
    24     9    10   ar
    25    10    11    1
    26    11    12    1
    27    11    13    1
    28    11    14    1
    29    21    22   ar
    30    22    23   ar
    31    23    18   ar
    32    10     2   ar
    33     9     5   ar
    34    31    32    1
@<TRIPOS>MOLECULE
*****
 32 34 0 0 0
SMALL
GASTEIGER

@<TRIPOS>ATOM
      1 O          62.4686   90.2776   12.3035 O.3     1  UNL1       -0.4361
      2 C          63.7427   91.0383   12.5229 C.ar    1  UNL1        0.1516
      3 C          64.3317   91.8519   11.4089 C.ar    1  UNL1        0.0391
      4 C          65.6058   92.6126   11.6283 C.ar    1  UNL1        0.0227
      5 C          66.2908   92.5596   12.9617 C.ar    1  UNL1        0.0876
      6 N          67.5486   93.1996   13.4700 N.ar    1  UNL1       -0.2427
      7 C          67.7368   92.7816   14.8982 C.ar    1  UNL1        0.0878
      8 S          66.5954   91.8832   15.2726 S.2     1  UNL1       -0.0708
      9 C          65.7017   91.7460   14.0757 C.ar    1  UNL1        0.0550
     10 C          64.4277   90.9853   13.8563 C.ar    1  UNL1        0.1134
     11 C          63.8386   90.1717   14.9703 C.3     1  UNL1        0.4219
     12 F          63.2494   89.3582   16.0844 F       1  UNL1       -0.1657
     13 F          64.6252   88.9785   14.5148 F       1  UNL1       -0.1657
     14 F          63.0520   91.3650   15.4258 F       1  UNL1       -0.1657
     15 C          68.8679   93.1902   15.7948 C.3     1  UNL1        0.0466
     16 C          69.1928   94.6431   15.9775 C.3     1  UNL1        0.0069
     17 C          69.6740   92.1458   16.5085 C.3     1  UNL1        0.0069
     18 C          62.6146   85.9515   11.0733 C.ar    1  UNL1        0.0191
     19 C          62.0160   86.9732   10.1525 C.ar    1  UNL1        0.0063
     20 C          61.9674   88.4153   10.5626 C.ar    1  UNL1        0.0581
     21 C          62.5172   88.8356   11.8934 C.ar    1  UNL1        0.2297
     22 N          63.1157   87.8138   12.8142 N.ar    1  UNL1       -0.2098
     23 C          63.1644   86.3717   12.4040 C.ar    1  UNL1        0.1020
     24 C          63.1396   83.4694   11.6335 C.2     1  UNL1       -0.0069
     25 C          62.6632   84.5094   10.6632 C.2     1  UNL1       -0.0014
     26 C          63.1882   82.0274   11.2234 C.3     1  UNL1        0.0939
     27 C          64.0837   81.5972   10.0995 C.3     1  UNL1        0.0262
     28 C          61.7548   79.6933   14.0952 C.3     1  UNL1        0.0946
     29 C          62.6016   80.7051   13.3815 C.2     1  UNL1        0.2232
     30 O          63.7084   81.4061   14.1119 O.2     1  UNL1       -0.2751
     31 N          62.3415   81.0157   11.9372 N.am    1  UNL1       -0.3022
     32 H          61.6150   80.5556   11.4577 H       1  UNL1        0.1497
@<TRIPOS>BOND
     1    28    29    1
     2    29    30    2
     3    29    31   am
     4    31    26    1
     5    26    27    1
     6    26    24    1
     7    24    25    2
     8    25    18    1
     9    18    19   ar
    10    19    20   ar
    11    20    21   ar
    12    21     1    1
    13     1     2    1
    14     2     3   ar
    15     3     4   ar
    16     4     5   ar
    17     5     6   ar
    18     6     7   ar
    19     7    15    1
    20    15    16    1
    21    15    17    1
    22     7     8   ar
    23     8     9   ar
    24     9    10   ar
    25    10    11    1
    26    11    12    1
    27    11    13    1
    28    11    14    1
    29    21    22   ar
    30    22    23   ar
    31    23    18   ar
    32    10     2   ar
    33     9     5   ar
    34    31    32    1
@<TRIPOS>MOLECULE
*****
 32 34 0 0 0
SMALL
GASTEIGER

@<TRIPOS>ATOM
      1 O          63.5363   90.1259   14.3365 O.3     1  UNL1       -0.4361
      2 C          64.5067   91.1026   13.7410 C.ar    1  UNL1        0.1516
      3 C          65.6672   91.5964   14.5528 C.ar    1  UNL1        0.0391
      4 C          66.6376   92.5731   13.9573 C.ar    1  UNL1        0.0227
      5 C          66.4472   93.0559   12.5499 C.ar    1  UNL1        0.0876
      6 N          67.2342   94.0099   11.7010 N.ar    1  UNL1       -0.2427
      7 C          66.5599   94.1056   10.3646 C.ar    1  UNL1        0.0878
      8 S          65.3562   93.2108   10.3875 S.2     1  UNL1       -0.0708
      9 C          65.2866   92.5620   11.7381 C.ar    1  UNL1        0.0550
     10 C          64.3163   91.5854   12.3337 C.ar    1  UNL1        0.1134
     11 C          63.1557   91.0915   11.5219 C.3     1  UNL1        0.4219
     12 F          61.9951   90.5975   10.7100 F       1  UNL1       -0.1657
     13 F          62.2089   91.5842   12.5758 F       1  UNL1       -0.1657
     14 F          64.1025   90.5988   10.4679 F       1  UNL1       -0.1657
     15 C          67.0102   94.9482    9.2082 C.3     1  UNL1        0.0466
     16 C          66.6465   96.4024    9.1533 C.3     1  UNL1        0.0069
     17 C          67.8242   94.3366    8.1066 C.3     1  UNL1        0.0069
     18 C          63.7781   85.7663   13.2474 C.ar    1  UNL1        0.0191
     19 C          64.3636   86.2498   14.5411 C.ar    1  UNL1        0.0063
     20 C          64.2830   87.7029   14.9041 C.ar    1  UNL1        0.0581
     21 C          63.6169   88.6727   13.9735 C.ar    1  UNL1        0.2297
     22 N          63.0315   88.1893   12.6799 N.ar    1  UNL1       -0.2098
     23 C          63.1121   86.7360   12.3169 C.ar    1  UNL1        0.1020
     24 C          63.0779   83.7875   11.7165 C.2     1  UNL1       -0.0069
     25 C          63.8587   84.3132   12.8844 C.2     1  UNL1       -0.0014
     26 C          63.1585   82.3343   11.3535 C.3     1  UNL1        0.0939
     27 C          64.1566   81.8701   10.3344 C.3     1  UNL1        0.0262
     28 C          61.7017   79.7403   13.9801 C.3     1  UNL1        0.0946
     29 C          62.6191   80.7293   13.3240 C.2     1  UNL1        0.2232
     30 O          63.9143   81.1021   13.9823 O.2     1  UNL1       -0.2751
     31 N          62.2411   81.3454   12.0096 N.am    1  UNL1       -0.3022
     32 H          61.3910   81.1007   11.5775 H       1  UNL1        0.1497
@<TRIPOS>BOND
     1    28    29    1
     2    29    30    2
     3    29    31   am
     4    31    26    1
     5    26    27    1
     6    26    24    1
     7    24    25    2
     8    25    18    1
     9    18    19   ar
    10    19    20   ar
    11    20    21   ar
    12    21     1    1
    13     1     2    1
    14     2     3   ar
    15     3     4   ar
    16     4     5   ar
    17     5     6   ar
    18     6     7   ar
    19     7    15    1
    20    15    16    1
    21    15    17    1
    22     7     8   ar
    23     8     9   ar
    24     9    10   ar
    25    10    11    1
    26    11    12    1
    27    11    13    1
    28    11    14    1
    29    21    22   ar
    30    22    23   ar
    31    23    18   ar
    32    10     2   ar
    33     9     5   ar
    34    31    32    1
@<TRIPOS>MOLECULE
*****
 32 34 0 0 0
SMALL
GASTEIGER

@<TRIPOS>ATOM
      1 O          62.9146   89.4790   13.6296 O.3     1  UNL1       -0.4361
      2 C          63.9864   90.4851   13.3309 C.ar    1  UNL1        0.1516
      3 C          65.0569   90.7637   14.3439 C.ar    1  UNL1        0.0391
      4 C          66.1286   91.7699   14.0452 C.ar    1  UNL1        0.0227
      5 C          66.1297   92.4974   12.7334 C.ar    1  UNL1        0.0876
      6 N          67.0496   93.5354   12.1622 N.ar    1  UNL1       -0.2427
      7 C          66.5475   93.8982   10.7961 C.ar    1  UNL1        0.0878
      8 S          65.3173   93.0845   10.5230 S.2     1  UNL1       -0.0708
      9 C          65.0591   92.2187   11.7204 C.ar    1  UNL1        0.0550
     10 C          63.9874   91.2126   12.0191 C.ar    1  UNL1        0.1134
     11 C          62.9169   90.9339   11.0061 C.3     1  UNL1        0.4219
     12 F          61.8462   90.6553    9.9931 F       1  UNL1       -0.1657
     13 F          63.9252   90.2551   10.1272 F       1  UNL1       -0.1657
     14 F          61.9085   91.6127   11.8850 F       1  UNL1       -0.1657
     15 C          67.1669   94.8991    9.8662 C.3     1  UNL1        0.0466
     16 C          68.0227   94.4338    8.7256 C.3     1  UNL1        0.0069
     17 C          66.9304   96.3653   10.0770 C.3     1  UNL1        0.0069
     18 C          63.8399   85.0797   13.4289 C.ar    1  UNL1        0.0191
     19 C          63.1495   85.7540   12.2805 C.ar    1  UNL1        0.0063
     20 C          62.8411   87.2204   12.3475 C.ar    1  UNL1        0.0581
     21 C          63.2230   88.0126   13.5627 C.ar    1  UNL1        0.2297
     22 N          63.9134   87.3382   14.7110 N.ar    1  UNL1       -0.2098
     23 C          64.2218   85.8717   14.6441 C.ar    1  UNL1        0.1020
     24 C          63.0342   82.6180   13.2264 C.2     1  UNL1       -0.0069
     25 C          64.1483   83.6132   13.3620 C.2     1  UNL1       -0.0014
     26 C          63.3426   81.1516   13.1594 C.3     1  UNL1        0.0939
     27 C          64.2265   80.5230   14.1957 C.3     1  UNL1        0.0262
     28 C          62.6149   79.7118    9.5335 C.3     1  UNL1        0.0946
     29 C          63.1904   80.5496   10.6366 C.2     1  UNL1        0.2232
     30 O          64.1889   81.6232   10.3201 O.2     1  UNL1       -0.2751
     31 N          62.7672   80.3137   12.0563 N.am    1  UNL1       -0.3022
     32 H          62.1118   79.6091   12.2640 H       1  UNL1        0.1497
@<TRIPOS>BOND
     1    28    29    1
     2    29    30    2
     3    29    31   am
     4    31    26    1
     5    26    27    1
     6    26    24    1
     7    24    25    2
     8    25    18    1
     9    18    19   ar
    10    19    20   ar
    11    20    21   ar
    12    21     1    1
    13     1     2    1
    14     2     3   ar
    15     3     4   ar
    16     4     5   ar
    17     5     6   ar
    18     6     7   ar
    19     7    15    1
    20    15    16    1
    21    15    17    1
    22     7     8   ar
    23     8     9   ar
    24     9    10   ar
    25    10    11    1
    26    11    12    1
    27    11    13    1
    28    11    14    1
    29    21    22   ar
    30    22    23   ar
    31    23    18   ar
    32    10     2   ar
    33     9     5   ar
    34    31    32    1
@<TRIPOS>MOLECULE
*****
 32 34 0 0 0
SMALL
GASTEIGER

@<TRIPOS>ATOM
      1 O          62.2436   88.8791   11.3264 O.3     1  UNL1       -0.4361
      2 C          62.6785   87.5844   11.9467 C.ar    1  UNL1        0.1516
      3 C          63.5253   87.5931   13.1847 C.ar    1  UNL1        0.0391
      4 C          63.9602   86.2984   13.8050 C.ar    1  UNL1        0.0227
      5 C          63.5482   84.9951   13.1872 C.ar    1  UNL1        0.0876
      6 N          63.8225   83.5713   13.5711 N.ar    1  UNL1       -0.2427
      7 C          63.1451   82.6827   12.5704 C.ar    1  UNL1        0.0878
      8 S          62.4522   83.5573   11.5679 S.2     1  UNL1       -0.0708
      9 C          62.7014   84.9865   11.9491 C.ar    1  UNL1        0.0550
     10 C          62.2665   86.2812   11.3289 C.ar    1  UNL1        0.1134
     11 C          61.4197   86.2726   10.0908 C.3     1  UNL1        0.4219
     12 F          60.5727   86.2640    8.8528 F       1  UNL1       -0.1657
     13 F          62.6104   85.8561    9.2792 F       1  UNL1       -0.1657
     14 F          60.2289   86.6890   10.9024 F       1  UNL1       -0.1657
     15 C          63.1583   81.1827   12.5718 C.3     1  UNL1        0.0466
     16 C          63.0936   80.4333   13.8695 C.3     1  UNL1        0.0069
     17 C          63.2362   80.4322   11.2754 C.3     1  UNL1        0.0069
     18 C          64.8686   92.5203   11.6453 C.ar    1  UNL1        0.0191
     19 C          64.2382   92.1629   10.3319 C.ar    1  UNL1        0.0063
     20 C          63.3632   90.9492   10.2256 C.ar    1  UNL1        0.0581
     21 C          63.1186   90.0928   11.4326 C.ar    1  UNL1        0.2297
     22 N          63.7490   90.4503   12.7460 N.ar    1  UNL1       -0.2098
     23 C          64.6240   91.6640   12.8523 C.ar    1  UNL1        0.1020
     24 C          65.4564   94.9417   10.9096 C.2     1  UNL1       -0.0069
     25 C          65.7436   93.7340   11.7516 C.2     1  UNL1       -0.0014
     26 C          66.3313   96.1554   11.0158 C.3     1  UNL1        0.0939
     27 C          66.7403   96.6693   12.3645 C.3     1  UNL1        0.0262
     28 C          67.6341   96.7577    7.3158 C.3     1  UNL1        0.0946
     29 C          67.1681   96.0580    8.5581 C.2     1  UNL1        0.2232
     30 O          67.0728   94.5612    8.5849 O.2     1  UNL1       -0.2751
     31 N          66.7974   96.8551    9.7736 N.am    1  UNL1       -0.3022
     32 H          66.8599   97.8374    9.7559 H       1  UNL1        0.1497
@<TRIPOS>BOND
     1    28    29    1
     2    29    30    2
     3    29    31   am
     4    31    26    1
     5    26    27    1
     6    26    24    1
     7    24    25    2
     8    25    18    1
     9    18    19   ar
    10    19    20   ar
    11    20    21   ar
    12    21     1    1
    13     1     2    1
    14     2     3   ar
    15     3     4   ar
    16     4     5   ar
    17     5     6   ar
    18     6     7   ar
    19     7    15    1
    20    15    16    1
    21    15    17    1
    22     7     8   ar
    23     8     9   ar
    24     9    10   ar
    25    10    11    1
    26    11    12    1
    27    11    13    1
    28    11    14    1
    29    21    22   ar
    30    22    23   ar
    31    23    18   ar
    32    10     2   ar
    33     9     5   ar
    34    31    32    1
@<TRIPOS>MOLECULE
*****
 32 34 0 0 0
SMALL
GASTEIGER

@<TRIPOS>ATOM
      1 O          62.4585   89.1774   12.4315 O.3     1  UNL1       -0.4361
      2 C          63.5853   90.1434   12.6491 C.ar    1  UNL1        0.1516
      3 C          63.9299   91.1452   11.5873 C.ar    1  UNL1        0.0391
      4 C          65.0567   92.1112   11.8048 C.ar    1  UNL1        0.0227
      5 C          65.8389   92.0752   13.0842 C.ar    1  UNL1        0.0876
      6 N          66.9936   92.8955   13.5780 N.ar    1  UNL1       -0.2427
      7 C          67.3626   92.4005   14.9450 C.ar    1  UNL1        0.0878
      8 S          66.4360   91.2744   15.2961 S.2     1  UNL1       -0.0708
      9 C          65.4943   91.0733   14.1460 C.ar    1  UNL1        0.0550
     10 C          64.3675   90.1074   13.9285 C.ar    1  UNL1        0.1134
     11 C          64.0229   89.1056   14.9903 C.3     1  UNL1        0.4219
     12 F          63.6783   88.1036   16.0521 F       1  UNL1       -0.1657
     13 F          63.2962   90.1695   15.7583 F       1  UNL1       -0.1657
     14 F          64.7496   88.0416   14.2223 F       1  UNL1       -0.1657
     15 C          68.4648   92.9374   15.8093 C.3     1  UNL1        0.0466
     16 C          68.7877   94.4021   15.7893 C.3     1  UNL1        0.0069
     17 C          69.2441   92.0096   16.6936 C.3     1  UNL1        0.0069
     18 C          60.0369   89.3616    8.6431 C.ar    1  UNL1        0.0191
     19 C          59.8142   90.3759    9.7257 C.ar    1  UNL1        0.0063
     20 C          60.6214   90.3145   10.9884 C.ar    1  UNL1        0.0581
     21 C          61.6513   89.2389   11.1688 C.ar    1  UNL1        0.2297
     22 N          61.8739   88.2247   10.0863 N.ar    1  UNL1       -0.2098
     23 C          61.0666   88.2861    8.8234 C.ar    1  UNL1        0.1020
     24 C          59.1725   90.6954    6.5879 C.2     1  UNL1       -0.0069
     25 C          59.2296   89.4231    7.3804 C.2     1  UNL1       -0.0014
     26 C          58.3653   90.7568    5.3252 C.3     1  UNL1        0.0939
     27 C          56.8932   90.4706    5.3614 C.3     1  UNL1        0.0262
     28 C          60.1295   92.8628    2.4612 C.3     1  UNL1        0.0946
     29 C          59.4647   92.5153    3.7601 C.2     1  UNL1        0.2232
     30 O          59.2345   93.5784    4.7929 O.2     1  UNL1       -0.2751
     31 N          59.0301   91.1044    4.0262 N.am    1  UNL1       -0.3022
     32 H          59.1811   90.4066    3.3483 H       1  UNL1        0.1497
@<TRIPOS>BOND
     1    28    29    1
     2    29    30    2
     3    29    31   am
     4    31    26    1
     5    26    27    1
     6    26    24    1
     7    24    25    2
     8    25    18    1
     9    18    19   ar
    10    19    20   ar
    11    20    21   ar
    12    21     1    1
    13     1     2    1
    14     2     3   ar
    15     3     4   ar
    16     4     5   ar
    17     5     6   ar
    18     6     7   ar
    19     7    15    1
    20    15    16    1
    21    15    17    1
    22     7     8   ar
    23     8     9   ar
    24     9    10   ar
    25    10    11    1
    26    11    12    1
    27    11    13    1
    28    11    14    1
    29    21    22   ar
    30    22    23   ar
    31    23    18   ar
    32    10     2   ar
    33     9     5   ar
    34    31    32    1
