@<TRIPOS>MOLECULE
*****
 37 41 0 0 0
SMALL
GASTEIGER

@<TRIPOS>ATOM
      1 CA         63.2179   85.5276   14.4179 C.3     2  ILE2        0.1523
      2 C          63.7942   86.2755   15.5834 C.2     2  ILE2        0.2409
      3 O          63.8696   85.6213   16.9312 O.2     2  ILE2       -0.2733
      4 N          64.2952   87.6775   15.4013 N.am    1  UNK1       -0.2970
      5 C          64.2199   88.3317   14.0536 C.3     1  UNK1        0.1494
      6 C          63.6436   87.5839   12.8881 C.2     1  UNK1        0.2444
      7 O          63.5682   88.2381   11.5403 O.2     1  UNK1       -0.2731
      8 N          63.1426   86.1818   13.0702 N.am    2  ILE2       -0.2602
      9 H          64.6735   88.1684   16.1663 H       1  UNK1        0.1499
     10 C          64.7209   89.7338   13.8714 C.3     1  UNK1        0.0356
     11 C          65.4601   90.5457   14.8933 C.3     1  UNK1        0.0285
     12 C          65.7667   91.8839   14.2889 C.ar    1  UNK1       -0.0261
     13 C          66.4755   93.0905   14.8289 C.ar    1  UNK1       -0.0046
     14 C          66.6344   94.3123   13.9733 C.ar    1  UNK1       -0.0003
     15 C          66.0846   94.3274   12.5778 C.ar    1  UNK1       -0.0003
     16 C          65.3758   93.1208   12.0378 C.ar    1  UNK1       -0.0046
     17 C          65.2169   91.8990   12.8933 C.ar    1  UNK1       -0.0261
     18 C          64.5705   90.5702   12.6354 C.3     1  UNK1        0.0285
     19 CB         62.7169   84.1255   14.6001 C.3     2  ILE2        0.0272
     20 CG2        61.6776   83.8089   14.7240 C.3     2  ILE2        0.0022
     21 CD1        63.2100   81.5892   14.3281 C.3     2  ILE2        0.0001
     22 CG1        63.6854   82.9804   14.6256 C.3     2  ILE2        0.0021
     23 C          62.5662   85.4339   11.9046 C.3     0  UNK0        0.1962
     24 C          61.4183   86.0155   11.1339 C.2     0  UNK0        0.2499
     25 O          60.5696   86.5738   11.5385 O.2     0  UNK0       -0.2727
     26 N          61.3576   85.8554    9.6438 N.am    0  UNK0       -0.2727
     27 C          62.4449   85.1136    8.9242 C.3     0  UNK0        0.1255
     28 C          62.3842   84.9535    7.4340 C.3     0  UNK0        0.1636
     29 O          61.2363   85.5351    6.6633 O.3     0  UNK0       -0.3501
     30 C          60.1490   86.2768    7.3828 C.3     0  UNK0        0.1636
     31 C          60.2097   86.4370    8.8731 C.3     0  UNK0        0.1255
     32 C          63.1378   84.1045   11.5098 C.ar    0  UNK0        0.1263
     33 C          64.5912   83.7958   11.3036 C.ar    0  UNK0        0.1979
     34 O          64.7079   82.3509   10.9182 O.2     0  UNK0       -0.4355
     35 C          63.3268   81.7666   10.8861 C.ar    0  UNK0        0.2061
     36 C          62.9774   80.3476   10.5479 C.3     0  UNK0        0.0950
     37 N          62.3564   82.8504   11.2518 N.ar    0  UNK0       -0.2142
@<TRIPOS>BOND
     1    21    22    1
     2    22    19    1
     3    19    20    1
     4    19     1    1
     5     1     2    1
     6     2     3    2
     7     2     4   am
     8     4     5    1
     9     5    10    1
    10    10    11    1
    11    11    12    1
    12    12    13   ar
    13    13    14   ar
    14    14    15   ar
    15    15    16   ar
    16    16    17   ar
    17    17    18    1
    18     5     6    1
    19     6     7    2
    20     6     8   am
    21    23     8    1
    22    23    24    1
    23    24    25    2
    24    24    26   am
    25    26    27    1
    26    27    28    1
    27    28    29    1
    28    29    30    1
    29    30    31    1
    30    23    32    1
    31    32    33   ar
    32    33    34   ar
    33    34    35   ar
    34    35    36    1
    35    35    37   ar
    36     1     8    1
    37    31    26    1
    38    37    32   ar
    39    18    10    1
    40    17    12   ar
    41     4     9    1
@<TRIPOS>MOLECULE
*****
 37 41 0 0 0
SMALL
GASTEIGER

@<TRIPOS>ATOM
      1 CA         60.8079   88.6289   10.1855 C.3     2  ILE2        0.1523
      2 C          60.6814   90.1061   10.4129 C.2     2  ILE2        0.2409
      3 O          59.5847   90.8773    9.7401 O.2     2  ILE2       -0.2733
      4 N          61.6515   90.8122   11.3130 N.am    1  UNK1       -0.2970
      5 C          62.7481   90.0411   11.9858 C.3     1  UNK1        0.1494
      6 C          62.8747   88.5639   11.7585 C.2     1  UNK1        0.2444
      7 O          63.9714   87.7927   12.4313 O.2     1  UNK1       -0.2731
      8 N          61.9046   87.8578   10.8583 N.am    2  ILE2       -0.2602
      9 H          61.5684   91.7818   11.4622 H       1  UNK1        0.1499
     10 C          63.7182   90.7473   12.8860 C.3     1  UNK1        0.0356
     11 C          63.7110   90.7184   14.3857 C.3     1  UNK1        0.0285
     12 C          64.8542   91.5595   14.8711 C.ar    1  UNK1       -0.0261
     13 C          65.3374   91.8967   16.2505 C.ar    1  UNK1       -0.0046
     14 C          66.5344   92.7825   16.4301 C.ar    1  UNK1       -0.0003
     15 C          67.2483   93.3312   15.2304 C.ar    1  UNK1       -0.0003
     16 C          66.7651   92.9941   13.8510 C.ar    1  UNK1       -0.0046
     17 C          65.5680   92.1082   13.6713 C.ar    1  UNK1       -0.0261
     18 C          64.8660   91.6062   12.4445 C.3     1  UNK1        0.0285
     19 CB         59.8378   87.9228    9.2854 C.3     2  ILE2        0.0272
     20 CG2        58.9847   87.3097    9.5890 C.3     2  ILE2        0.0022
     21 CD1        59.1337   88.9759    7.0171 C.3     2  ILE2        0.0001
     22 CG1        59.9885   88.0208    7.7962 C.3     2  ILE2        0.0021
     23 C          62.0311   86.3805   10.6310 C.3     0  UNK0        0.1962
     24 C          61.9412   85.4329   11.7902 C.2     0  UNK0        0.2499
     25 O          61.3277   85.5478   12.6881 O.2     0  UNK0       -0.2727
     26 N          62.7501   84.1697   11.7909 N.am    0  UNK0       -0.2727
     27 C          63.6490   83.8541   10.6322 C.3     0  UNK0        0.1255
     28 C          64.4578   82.5909   10.6328 C.3     0  UNK0        0.1636
     29 O          64.3679   81.6433   11.7921 O.3     0  UNK0       -0.3501
     30 C          63.4691   81.9588   12.9507 C.3     0  UNK0        0.1636
     31 C          62.6602   83.2220   12.9501 C.3     0  UNK0        0.1255
     32 C          62.2476   85.8509    9.2444 C.ar    0  UNK0        0.1263
     33 C          63.5293   85.9119    8.4674 C.ar    0  UNK0        0.1979
     34 O          63.2942   85.2660    7.1342 O.2     0  UNK0       -0.4355
     35 C          61.8673   84.8058    7.0872 C.ar    0  UNK0        0.2061
     36 C          61.2038   84.1068    5.9378 C.3     0  UNK0        0.0950
     37 N          61.2205   85.1673    8.3914 N.ar    0  UNK0       -0.2142
@<TRIPOS>BOND
     1    21    22    1
     2    22    19    1
     3    19    20    1
     4    19     1    1
     5     1     2    1
     6     2     3    2
     7     2     4   am
     8     4     5    1
     9     5    10    1
    10    10    11    1
    11    11    12    1
    12    12    13   ar
    13    13    14   ar
    14    14    15   ar
    15    15    16   ar
    16    16    17   ar
    17    17    18    1
    18     5     6    1
    19     6     7    2
    20     6     8   am
    21    23     8    1
    22    23    24    1
    23    24    25    2
    24    24    26   am
    25    26    27    1
    26    27    28    1
    27    28    29    1
    28    29    30    1
    29    30    31    1
    30    23    32    1
    31    32    33   ar
    32    33    34   ar
    33    34    35   ar
    34    35    36    1
    35    35    37   ar
    36     1     8    1
    37    31    26    1
    38    37    32   ar
    39    18    10    1
    40    17    12   ar
    41     4     9    1
@<TRIPOS>MOLECULE
*****
 37 41 0 0 0
SMALL
GASTEIGER

@<TRIPOS>ATOM
      1 CA         63.8027   90.4618   14.5370 C.3     2  ILE2        0.1523
      2 C          64.7520   91.5272   14.9992 C.2     2  ILE2        0.2409
      3 O          65.0692   91.6673   16.4587 O.2     2  ILE2       -0.2733
      4 N          65.3841   92.4525   14.0021 N.am    1  UNK1       -0.2970
      5 C          65.0670   92.3124   12.5428 C.3     1  UNK1        0.1494
      6 C          64.1177   91.2470   12.0806 C.2     1  UNK1        0.2444
      7 O          63.8005   91.1069   10.6211 O.2     1  UNK1       -0.2731
      8 N          63.4855   90.3217   13.0776 N.am    2  ILE2       -0.2602
      9 H          66.0072   93.1518   14.3056 H       1  UNK1        0.1499
     10 C          65.6991   93.2377   11.5457 C.3     1  UNK1        0.0356
     11 C          65.7626   94.7329   11.6472 C.3     1  UNK1        0.0285
     12 C          66.4815   95.2496   10.4362 C.ar    1  UNK1       -0.0261
     13 C          66.8385   96.6389    9.9977 C.ar    1  UNK1       -0.0046
     14 C          67.5763   96.8523    8.7093 C.ar    1  UNK1       -0.0003
     15 C          67.9571   95.6764    7.8594 C.ar    1  UNK1       -0.0003
     16 C          67.6000   94.2871    8.2980 C.ar    1  UNK1       -0.0046
     17 C          66.8622   94.0737    9.5864 C.ar    1  UNK1       -0.0261
     18 C          66.3787   92.8303   10.2721 C.3     1  UNK1        0.0285
     19 CB         63.1706   89.5364   15.5341 C.3     2  ILE2        0.0272
     20 CG2        62.2254   89.6856   16.0633 C.3     2  ILE2        0.0022
     21 CD1        63.1586   87.2651   16.7953 C.3     2  ILE2        0.0001
     22 CG1        63.8480   88.2480   15.8961 C.3     2  ILE2        0.0021
     23 C          62.5362   89.2562   12.6153 C.3     0  UNK0        0.1962
     24 C          63.0342   87.8625   12.3712 C.2     0  UNK0        0.2499
     25 O          63.6996   87.2794   13.0139 O.2     0  UNK0       -0.2727
     26 N          62.6185   87.1235   11.1339 N.am    0  UNK0       -0.2727
     27 C          61.7047   87.7781   10.1407 C.3     0  UNK0        0.1255
     28 C          61.2890   87.0391    8.9034 C.3     0  UNK0        0.1636
     29 O          61.7870   85.6454    8.6593 O.3     0  UNK0       -0.3501
     30 C          62.7007   84.9907    9.6525 C.3     0  UNK0        0.1636
     31 C          63.1165   85.7298   10.8899 C.3     0  UNK0        0.1255
     32 C          61.0890   89.5845   12.3971 C.ar    0  UNK0        0.1263
     33 C          60.5572   90.7471   11.6125 C.ar    0  UNK0        0.1979
     34 O          59.0589   90.6889   11.6557 O.2     0  UNK0       -0.4355
     35 C          58.6648   89.4904   12.4670 C.ar    0  UNK0        0.2061
     36 C          57.2622   89.0515   12.7673 C.3     0  UNK0        0.0950
     37 N          59.9194   88.8078   12.9252 N.ar    0  UNK0       -0.2142
@<TRIPOS>BOND
     1    21    22    1
     2    22    19    1
     3    19    20    1
     4    19     1    1
     5     1     2    1
     6     2     3    2
     7     2     4   am
     8     4     5    1
     9     5    10    1
    10    10    11    1
    11    11    12    1
    12    12    13   ar
    13    13    14   ar
    14    14    15   ar
    15    15    16   ar
    16    16    17   ar
    17    17    18    1
    18     5     6    1
    19     6     7    2
    20     6     8   am
    21    23     8    1
    22    23    24    1
    23    24    25    2
    24    24    26   am
    25    26    27    1
    26    27    28    1
    27    28    29    1
    28    29    30    1
    29    30    31    1
    30    23    32    1
    31    32    33   ar
    32    33    34   ar
    33    34    35   ar
    34    35    36    1
    35    35    37   ar
    36     1     8    1
    37    31    26    1
    38    37    32   ar
    39    18    10    1
    40    17    12   ar
    41     4     9    1
@<TRIPOS>MOLECULE
*****
 37 41 0 0 0
SMALL
GASTEIGER

@<TRIPOS>ATOM
      1 CA         63.5083   90.2032   14.8186 C.3     2  ILE2        0.1523
      2 C          64.2792   91.3931   15.3082 C.2     2  ILE2        0.2409
      3 O          64.3645   91.6783   16.7784 O.2     2  ILE2       -0.2733
      4 N          64.9647   92.2979   14.3277 N.am    1  UNK1       -0.2970
      5 C          64.8793   92.0128   12.8575 C.3     1  UNK1        0.1494
      6 C          64.1085   90.8229   12.3679 C.2     1  UNK1        0.2444
      7 O          64.0231   90.5377   10.8977 O.2     1  UNK1       -0.2731
      8 N          63.4229   89.9181   13.3484 N.am    2  ILE2       -0.2602
      9 H          65.4706   93.0789   14.6490 H       1  UNK1        0.1499
     10 C          65.5648   92.9176   11.8770 C.3     1  UNK1        0.0356
     11 C          65.6989   94.4068   11.9961 C.3     1  UNK1        0.0285
     12 C          66.4536   94.9017   10.7980 C.ar    1  UNK1       -0.0261
     13 C          66.8811   96.2769   10.3787 C.ar    1  UNK1       -0.0046
     14 C          67.6409   96.4688    9.0997 C.ar    1  UNK1       -0.0003
     15 C          67.9732   95.2853    8.2400 C.ar    1  UNK1       -0.0003
     16 C          67.5457   93.9101    8.6593 C.ar    1  UNK1       -0.0046
     17 C          66.7859   93.7182    9.9383 C.ar    1  UNK1       -0.0261
     18 C          66.2366   92.4920   10.6052 C.3     1  UNK1        0.0285
     19 CB         62.8228   89.2984   15.7991 C.3     2  ILE2        0.0272
     20 CG2        61.7565   89.2770   16.0407 C.3     2  ILE2        0.0022
     21 CD1        62.9156   87.2264   17.3637 C.3     2  ILE2        0.0001
     22 CG1        63.6187   88.2873   16.5699 C.3     2  ILE2        0.0021
     23 C          62.6520   88.7281   12.8587 C.3     0  UNK0        0.1962
     24 C          61.3587   88.9228   12.1243 C.2     0  UNK0        0.2499
     25 O          60.4960   89.5079   12.4546 O.2     0  UNK0       -0.2727
     26 N          61.1513   88.2769   10.7865 N.am    0  UNK0       -0.2727
     27 C          62.2373   87.4362   10.1831 C.3     0  UNK0        0.1255
     28 C          62.0298   86.7903    8.8453 C.3     0  UNK0        0.1636
     29 O          60.7365   86.9850    8.1108 O.3     0  UNK0       -0.3501
     30 C          59.6506   87.8256    8.7142 C.3     0  UNK0        0.1636
     31 C          59.8580   88.4716   10.0521 C.3     0  UNK0        0.1255
     32 C          63.1745   87.3435   13.1034 C.ar    0  UNK0        0.1263
     33 C          64.3519   86.9841   13.9605 C.ar    0  UNK0        0.1979
     34 O          64.5163   85.4937   13.9208 O.2     0  UNK0       -0.4355
     35 C          63.4405   84.9319   13.0393 C.ar    0  UNK0        0.2061
     36 C          63.2309   83.4816   12.7191 C.3     0  UNK0        0.0950
     37 N          62.6112   86.0752   12.5341 N.ar    0  UNK0       -0.2142
@<TRIPOS>BOND
     1    21    22    1
     2    22    19    1
     3    19    20    1
     4    19     1    1
     5     1     2    1
     6     2     3    2
     7     2     4   am
     8     4     5    1
     9     5    10    1
    10    10    11    1
    11    11    12    1
    12    12    13   ar
    13    13    14   ar
    14    14    15   ar
    15    15    16   ar
    16    16    17   ar
    17    17    18    1
    18     5     6    1
    19     6     7    2
    20     6     8   am
    21    23     8    1
    22    23    24    1
    23    24    25    2
    24    24    26   am
    25    26    27    1
    26    27    28    1
    27    28    29    1
    28    29    30    1
    29    30    31    1
    30    23    32    1
    31    32    33   ar
    32    33    34   ar
    33    34    35   ar
    34    35    36    1
    35    35    37   ar
    36     1     8    1
    37    31    26    1
    38    37    32   ar
    39    18    10    1
    40    17    12   ar
    41     4     9    1
@<TRIPOS>MOLECULE
*****
 37 41 0 0 0
SMALL
GASTEIGER

@<TRIPOS>ATOM
      1 CA         64.8177   91.0092   14.3228 C.3     2  ILE2        0.1523
      2 C          63.7902   89.9604   14.6295 C.2     2  ILE2        0.2409
      3 O          63.6130   89.4729   16.0370 O.2     2  ILE2       -0.2733
      4 N          62.9398   89.3991   13.5287 N.am    1  UNK1       -0.2970
      5 C          63.1169   89.8866   12.1212 C.3     1  UNK1        0.1494
      6 C          64.1445   90.9354   11.8146 C.2     1  UNK1        0.2444
      7 O          64.3217   91.4229   10.4071 O.2     1  UNK1       -0.2731
      8 N          64.9949   91.4967   12.9154 N.am    2  ILE2       -0.2602
      9 H          62.2653   88.7107   13.7299 H       1  UNK1        0.1499
     10 C          62.2665   89.3252   11.0204 C.3     1  UNK1        0.0356
     11 C          61.3780   90.1128   10.1038 C.3     1  UNK1        0.0285
     12 C          60.7177   89.1521    9.1599 C.ar    1  UNK1       -0.0261
     13 C          59.7410   89.3567    8.0400 C.ar    1  UNK1       -0.0046
     14 C          59.2448   88.1799    7.2533 C.ar    1  UNK1       -0.0003
     15 C          59.7252   86.7985    7.5865 C.ar    1  UNK1       -0.0003
     16 C          60.7019   86.5940    8.7064 C.ar    1  UNK1       -0.0046
     17 C          61.1981   87.7708    9.4931 C.ar    1  UNK1       -0.0261
     18 C          62.1554   87.8778   10.6430 C.3     1  UNK1        0.0285
     19 CB         65.6681   91.5705   15.4236 C.3     2  ILE2        0.0272
     20 CG2        66.6496   91.2114   15.7452 C.3     2  ILE2        0.0022
     21 CD1        64.0864   92.5847   17.2179 C.3     2  ILE2        0.0001
     22 CG1        65.1883   92.7516   16.2140 C.3     2  ILE2        0.0021
     23 C          66.0225   92.5456   12.6087 C.3     0  UNK0        0.1962
     24 C          65.7735   93.5425   11.5159 C.2     0  UNK0        0.2499
     25 O          65.0061   94.3213   11.4978 O.2     0  UNK0       -0.2727
     26 N          66.6281   93.5331   10.2832 N.am    0  UNK0       -0.2727
     27 C          67.7317   92.5268   10.1433 C.3     0  UNK0        0.1255
     28 C          68.5863   92.5175    8.9106 C.3     0  UNK0        0.1636
     29 O          68.3374   93.5144    7.8178 O.3     0  UNK0       -0.3501
     30 C          67.2339   94.5207    7.9577 C.3     0  UNK0        0.1636
     31 C          66.3792   94.5301    9.1904 C.3     0  UNK0        0.1255
     32 C          67.2989   92.5975   13.3947 C.ar    0  UNK0        0.1263
     33 C          68.4664   91.6680   13.2428 C.ar    0  UNK0        0.1979
     34 O          69.5210   92.0841   14.2249 O.2     0  UNK0       -0.4355
     35 C          69.0054   93.2707   14.9839 C.ar    0  UNK0        0.2061
     36 C          69.7350   94.0102   16.0659 C.3     0  UNK0        0.0950
     37 N          67.6320   93.5880   14.4708 N.ar    0  UNK0       -0.2142
@<TRIPOS>BOND
     1    21    22    1
     2    22    19    1
     3    19    20    1
     4    19     1    1
     5     1     2    1
     6     2     3    2
     7     2     4   am
     8     4     5    1
     9     5    10    1
    10    10    11    1
    11    11    12    1
    12    12    13   ar
    13    13    14   ar
    14    14    15   ar
    15    15    16   ar
    16    16    17   ar
    17    17    18    1
    18     5     6    1
    19     6     7    2
    20     6     8   am
    21    23     8    1
    22    23    24    1
    23    24    25    2
    24    24    26   am
    25    26    27    1
    26    27    28    1
    27    28    29    1
    28    29    30    1
    29    30    31    1
    30    23    32    1
    31    32    33   ar
    32    33    34   ar
    33    34    35   ar
    34    35    36    1
    35    35    37   ar
    36     1     8    1
    37    31    26    1
    38    37    32   ar
    39    18    10    1
    40    17    12   ar
    41     4     9    1
@<TRIPOS>MOLECULE
*****
 37 41 0 0 0
SMALL
GASTEIGER

@<TRIPOS>ATOM
      1 CA         65.3003   92.5197   12.0115 C.3     2  ILE2        0.1523
      2 C          64.9735   92.6496   10.5534 C.2     2  ILE2        0.2409
      3 O          65.6168   93.7287    9.7337 O.2     2  ILE2       -0.2733
      4 N          64.0034   91.7004    9.9147 N.am    1  UNK1       -0.2970
      5 C          63.3601   90.6213   10.7343 C.3     1  UNK1        0.1494
      6 C          63.6869   90.4914   12.1924 C.2     1  UNK1        0.2444
      7 O          63.0436   89.4122   13.0121 O.2     1  UNK1       -0.2731
      8 N          64.6571   91.4406   12.8310 N.am    2  ILE2       -0.2602
      9 H          63.7889   91.7856    8.9577 H       1  UNK1        0.1499
     10 C          62.3900   89.6720   10.0957 C.3     1  UNK1        0.0356
     11 C          61.0934   90.0450    9.4400 C.3     1  UNK1        0.0285
     12 C          60.4482   88.7866    8.9397 C.ar    1  UNK1       -0.0261
     13 C          59.1592   88.5399    8.2134 C.ar    1  UNK1       -0.0046
     14 C          58.7679   87.1426    7.8336 C.ar    1  UNK1       -0.0003
     15 C          59.6657   85.9919    8.1801 C.ar    1  UNK1       -0.0003
     16 C          60.9547   86.2386    8.9064 C.ar    1  UNK1       -0.0046
     17 C          61.3459   87.6360    9.2862 C.ar    1  UNK1       -0.0261
     18 C          62.5460   88.1832   10.0006 C.3     1  UNK1        0.0285
     19 CB         66.2705   93.4689   12.6501 C.3     2  ILE2        0.0272
     20 CG2        66.0301   94.3453   13.2583 C.3     2  ILE2        0.0022
     21 CD1        68.2513   92.1950   11.5531 C.3     2  ILE2        0.0001
     22 CG1        67.7461   93.2594   12.4815 C.3     2  ILE2        0.0021
     23 C          64.9839   91.3107   14.2893 C.3     0  UNK0        0.1962
     24 C          63.9356   90.8409   15.2539 C.2     0  UNK0        0.2499
     25 O          63.2201   91.4605   15.8015 O.2     0  UNK0       -0.2727
     26 N          63.7917   89.3777   15.5510 N.am    0  UNK0       -0.2727
     27 C          64.6960   88.3843   14.8837 C.3     0  UNK0        0.1255
     28 C          64.5521   86.9211   15.1808 C.3     0  UNK0        0.1636
     29 O          63.5038   86.4513   16.1454 O.3     0  UNK0       -0.3501
     30 C          62.5995   87.4446   16.8128 C.3     0  UNK0        0.1636
     31 C          62.7434   88.9079   16.5156 C.3     0  UNK0        0.1255
     32 C          66.3589   91.6506   14.7829 C.ar    0  UNK0        0.1263
     33 C          67.5828   90.7949   14.6420 C.ar    0  UNK0        0.1979
     34 O          68.7318   91.5213   15.2761 O.2     0  UNK0       -0.4355
     35 C          68.2180   92.8260   15.8088 C.ar    0  UNK0        0.2061
     36 C          69.0285   93.8679   16.5214 C.3     0  UNK0        0.0950
     37 N          66.7515   92.9059   15.5040 N.ar    0  UNK0       -0.2142
@<TRIPOS>BOND
     1    21    22    1
     2    22    19    1
     3    19    20    1
     4    19     1    1
     5     1     2    1
     6     2     3    2
     7     2     4   am
     8     4     5    1
     9     5    10    1
    10    10    11    1
    11    11    12    1
    12    12    13   ar
    13    13    14   ar
    14    14    15   ar
    15    15    16   ar
    16    16    17   ar
    17    17    18    1
    18     5     6    1
    19     6     7    2
    20     6     8   am
    21    23     8    1
    22    23    24    1
    23    24    25    2
    24    24    26   am
    25    26    27    1
    26    27    28    1
    27    28    29    1
    28    29    30    1
    29    30    31    1
    30    23    32    1
    31    32    33   ar
    32    33    34   ar
    33    34    35   ar
    34    35    36    1
    35    35    37   ar
    36     1     8    1
    37    31    26    1
    38    37    32   ar
    39    18    10    1
    40    17    12   ar
    41     4     9    1
@<TRIPOS>MOLECULE
*****
 37 41 0 0 0
SMALL
GASTEIGER

@<TRIPOS>ATOM
      1 CA         62.0099   89.1281   10.9208 C.3     2  ILE2        0.1523
      2 C          61.3270   88.1006   10.0677 C.2     2  ILE2        0.2409
      3 O          60.4939   88.5315    8.8970 O.2     2  ILE2       -0.2733
      4 N          61.4772   86.6423   10.3851 N.am    1  UNK1       -0.2970
      5 C          62.3102   86.2114   11.5556 C.3     1  UNK1        0.1494
      6 C          62.9932   87.2389   12.4088 C.2     1  UNK1        0.2444
      7 O          63.8263   86.8080   13.5794 O.2     1  UNK1       -0.2731
      8 N          62.8430   88.6972   12.0914 N.am    2  ILE2       -0.2602
      9 H          61.0289   85.9680    9.8251 H       1  UNK1        0.1499
     10 C          62.4604   84.7531   11.8730 C.3     1  UNK1        0.0356
     11 C          62.3755   84.1343   13.2368 C.3     1  UNK1        0.0285
     12 C          62.5845   82.6563   13.0891 C.ar    1  UNK1       -0.0261
     13 C          62.6075   81.5407   14.0915 C.ar    1  UNK1       -0.0046
     14 C          62.8445   80.1305   13.6388 C.ar    1  UNK1       -0.0003
     15 C          63.0586   79.8358   12.1837 C.ar    1  UNK1       -0.0003
     16 C          63.0356   80.9514   11.1813 C.ar    1  UNK1       -0.0046
     17 C          62.7985   82.3616   11.6339 C.ar    1  UNK1       -0.0261
     18 C          62.7218   83.6575   10.8824 C.3     1  UNK1        0.0285
     19 CB         61.8598   90.5864   10.6034 C.3     2  ILE2        0.0272
     20 CG2        62.4866   91.1822    9.9342 C.3     2  ILE2        0.0022
     21 CD1        59.4167   90.7459   11.4729 C.3     2  ILE2        0.0001
     22 CG1        60.7543   91.3810   11.2330 C.3     2  ILE2        0.0021
     23 C          63.5260   89.7247   12.9446 C.3     0  UNK0        0.1962
     24 C          64.3703   90.7879   12.3069 C.2     0  UNK0        0.2499
     25 O          64.2287   91.2368   11.3199 O.2     0  UNK0       -0.2727
     26 N          65.5542   91.3456   13.0400 N.am    0  UNK0       -0.2727
     27 C          65.8937   90.8400   14.4109 C.3     0  UNK0        0.1255
     28 C          67.0776   91.3977   15.1440 C.3     0  UNK0        0.1636
     29 O          67.9219   92.4610   14.5063 O.3     0  UNK0       -0.3501
     30 C          67.5824   92.9665   13.1355 C.3     0  UNK0        0.1636
     31 C          66.3985   92.4088   12.4023 C.3     0  UNK0        0.1255
     32 C          63.3646   89.6889   14.4354 C.ar    0  UNK0        0.1263
     33 C          63.2529   90.8810   15.3391 C.ar    0  UNK0        0.1979
     34 O          63.1059   90.3835   16.7465 O.2     0  UNK0       -0.4355
     35 C          63.1267   88.8840   16.7127 C.ar    0  UNK0        0.2061
     36 C          63.0084   87.9737   17.8990 C.3     0  UNK0        0.0950
     37 N          63.2866   88.4548   15.2844 N.ar    0  UNK0       -0.2142
@<TRIPOS>BOND
     1    21    22    1
     2    22    19    1
     3    19    20    1
     4    19     1    1
     5     1     2    1
     6     2     3    2
     7     2     4   am
     8     4     5    1
     9     5    10    1
    10    10    11    1
    11    11    12    1
    12    12    13   ar
    13    13    14   ar
    14    14    15   ar
    15    15    16   ar
    16    16    17   ar
    17    17    18    1
    18     5     6    1
    19     6     7    2
    20     6     8   am
    21    23     8    1
    22    23    24    1
    23    24    25    2
    24    24    26   am
    25    26    27    1
    26    27    28    1
    27    28    29    1
    28    29    30    1
    29    30    31    1
    30    23    32    1
    31    32    33   ar
    32    33    34   ar
    33    34    35   ar
    34    35    36    1
    35    35    37   ar
    36     1     8    1
    37    31    26    1
    38    37    32   ar
    39    18    10    1
    40    17    12   ar
    41     4     9    1
