@<TRIPOS>MOLECULE
*****
 29 34 0 0 0
SMALL
GASTEIGER

@<TRIPOS>ATOM
      1 O          61.8439   84.9553   10.9063 O.2     1  UNL1       -0.2904
      2 C          61.7684   86.4482   10.7824 C.2     1  UNL1        0.1885
      3 C          60.9637   87.0695    9.6793 C.ar    1  UNL1        0.0700
      4 C          60.2347   86.1978    8.7002 C.ar    1  UNL1        0.0059
      5 C          59.4302   86.8190    7.5972 C.ar    1  UNL1        0.0003
      6 C          59.3546   88.3120    7.4733 C.ar    1  UNL1        0.0031
      7 C          60.0836   89.1837    8.4523 C.ar    1  UNL1        0.0376
      8 C          60.8882   88.5624    9.5554 C.ar    1  UNL1        0.1476
      9 O          61.6173   89.4342   10.5345 O.3     1  UNL1       -0.4557
     10 C          62.4218   88.8129   11.6375 C.2     1  UNL1        0.1491
     11 C          63.2406   89.4117   12.7425 C.2     1  UNL1        0.0940
     12 N          63.8222   88.2889   13.5494 N.2     1  UNL1       -0.2480
     13 C          63.3628   86.9961   12.9430 C.2     1  UNL1        0.0966
     14 C          62.4974   87.3199   11.7615 C.3     1  UNL1        0.1621
     15 C          63.7083   85.6209   13.4324 C.ar    1  UNL1        0.1251
     16 N          63.9925   84.4248   12.5730 N.ar    1  UNL1       -0.2356
     17 C          64.2901   83.2650   13.4765 C.ar    1  UNL1        0.1065
     18 C          64.1897   83.7444   14.8943 C.ar    1  UNL1        0.0575
     19 S          63.8301   85.2004   14.8671 S.2     1  UNL1       -0.0647
     20 C          63.4423   90.8763   12.9961 C.3     1  UNL1        0.0750
     21 C          64.8169   91.4062   13.2786 C.ar    1  UNL1       -0.0129
     22 C          65.6561   91.9486   12.1600 C.ar    1  UNL1       -0.0006
     23 C          67.0307   92.4786   12.4424 C.ar    1  UNL1        0.0399
     24 C          67.5660   92.4660   13.8436 C.ar    1  UNL1        0.1764
     25 C          66.7268   91.9236   14.9622 C.ar    1  UNL1        0.1761
     26 C          65.3523   91.3937   14.6798 C.ar    1  UNL1        0.0363
     27 O          67.5162   92.0400   16.2325 O.3     1  UNL1       -0.4346
     28 C          68.8432   92.6544   15.8988 C.3     1  UNL1        0.4294
     29 O          68.8741   92.9177   14.4224 O.3     1  UNL1       -0.4346
@<TRIPOS>BOND
     1     1     2    2
     2     2     3    1
     3     3     4   ar
     4     4     5   ar
     5     5     6   ar
     6     6     7   ar
     7     7     8   ar
     8     8     9    1
     9     9    10    1
    10    10    11    2
    11    11    20    1
    12    20    21    1
    13    21    22   ar
    14    22    23   ar
    15    23    24   ar
    16    24    25   ar
    17    25    26   ar
    18    25    27    1
    19    27    28    1
    20    28    29    1
    21    11    12    1
    22    12    13    2
    23    13    15    1
    24    15    16   ar
    25    16    17   ar
    26    17    18   ar
    27    18    19   ar
    28    13    14    1
    29    14     2    1
    30     8     3   ar
    31    14    10    1
    32    26    21   ar
    33    19    15   ar
    34    29    24    1
@<TRIPOS>MOLECULE
*****
 29 34 0 0 0
SMALL
GASTEIGER

@<TRIPOS>ATOM
      1 O          62.0105   84.8774   10.8853 O.2     1  UNL1       -0.2904
      2 C          62.5582   86.0245   11.6817 C.2     1  UNL1        0.1885
      3 C          63.3209   85.7628   12.9466 C.ar    1  UNL1        0.0700
      4 C          63.5359   84.3542   13.4150 C.ar    1  UNL1        0.0059
      5 C          64.2986   84.0926   14.6798 C.ar    1  UNL1        0.0003
      6 C          64.8463   85.2397   15.4762 C.ar    1  UNL1        0.0031
      7 C          64.6313   86.6484   15.0078 C.ar    1  UNL1        0.0376
      8 C          63.8686   86.9099   13.7430 C.ar    1  UNL1        0.1476
      9 O          63.6535   88.3186   13.2745 O.3     1  UNL1       -0.4557
     10 C          62.8908   88.5802   12.0097 C.2     1  UNL1        0.1491
     11 C          62.5232   89.8518   11.3040 C.2     1  UNL1        0.0940
     12 N          61.7483   89.4906   10.0715 N.2     1  UNL1       -0.2480
     13 C          61.6370   87.9958   10.0155 C.2     1  UNL1        0.0966
     14 C          62.3431   87.4331   11.2133 C.3     1  UNL1        0.1621
     15 C          60.9417   87.2028    8.9488 C.ar    1  UNL1        0.1251
     16 N          61.5542   86.1129    8.1200 N.ar    1  UNL1       -0.2356
     17 C          60.5028   85.5970    7.1826 C.ar    1  UNL1        0.1065
     18 C          59.2406   86.3682    7.4322 C.ar    1  UNL1        0.0575
     19 S          59.5119   87.3606    8.5237 S.2     1  UNL1       -0.0647
     20 C          62.8696   91.2407   11.7523 C.3     1  UNL1        0.0750
     21 C          64.2798   91.5736   12.1404 C.ar    1  UNL1       -0.0129
     22 C          65.2248   92.1380   11.1214 C.ar    1  UNL1       -0.0006
     23 C          66.6350   92.4710   11.5095 C.ar    1  UNL1        0.0399
     24 C          67.1001   92.2396   12.9167 C.ar    1  UNL1        0.1764
     25 C          66.1550   91.6753   13.9357 C.ar    1  UNL1        0.1761
     26 C          64.7449   91.3423   13.5476 C.ar    1  UNL1        0.0363
     27 O          66.8926   91.5567   15.2365 O.3     1  UNL1       -0.4346
     28 C          68.2935   92.0478   15.0213 C.3     1  UNL1        0.4294
     29 O          68.4217   92.4698   13.5876 O.3     1  UNL1       -0.4346
@<TRIPOS>BOND
     1     1     2    2
     2     2     3    1
     3     3     4   ar
     4     4     5   ar
     5     5     6   ar
     6     6     7   ar
     7     7     8   ar
     8     8     9    1
     9     9    10    1
    10    10    11    2
    11    11    20    1
    12    20    21    1
    13    21    22   ar
    14    22    23   ar
    15    23    24   ar
    16    24    25   ar
    17    25    26   ar
    18    25    27    1
    19    27    28    1
    20    28    29    1
    21    11    12    1
    22    12    13    2
    23    13    15    1
    24    15    16   ar
    25    16    17   ar
    26    17    18   ar
    27    18    19   ar
    28    13    14    1
    29    14     2    1
    30     8     3   ar
    31    14    10    1
    32    26    21   ar
    33    19    15   ar
    34    29    24    1
@<TRIPOS>MOLECULE
*****
 29 34 0 0 0
SMALL
GASTEIGER

@<TRIPOS>ATOM
      1 O          62.0073   84.8870   10.9219 O.2     1  UNL1       -0.2904
      2 C          62.1286   86.3524   11.2182 C.2     1  UNL1        0.1885
      3 C          61.4667   87.3562   10.3214 C.ar    1  UNL1        0.0700
      4 C          60.6836   86.8946    9.1282 C.ar    1  UNL1        0.0059
      5 C          60.0218   87.8985    8.2314 C.ar    1  UNL1        0.0003
      6 C          60.1431   89.3639    8.5278 C.ar    1  UNL1        0.0031
      7 C          60.9262   89.8255    9.7209 C.ar    1  UNL1        0.0376
      8 C          61.5880   88.8217   10.6177 C.ar    1  UNL1        0.1476
      9 O          62.3711   89.2833   11.8109 O.3     1  UNL1       -0.4557
     10 C          63.0329   88.2794   12.7077 C.2     1  UNL1        0.1491
     11 C          63.8638   88.4345   13.9469 C.2     1  UNL1        0.0940
     12 N          64.2561   87.0650   14.4165 N.2     1  UNL1       -0.2480
     13 C          63.6676   86.0634   13.4674 C.2     1  UNL1        0.0966
     14 C          62.9117   86.8140   12.4114 C.3     1  UNL1        0.1621
     15 C          63.8100   84.5730   13.5584 C.ar    1  UNL1        0.1251
     16 N          64.5545   83.6979   12.5941 N.ar    1  UNL1       -0.2356
     17 C          64.4376   82.2800   13.0695 C.ar    1  UNL1        0.1065
     18 C          63.6208   82.2788   14.3276 C.ar    1  UNL1        0.0575
     19 S          63.2329   83.6960   14.6298 S.2     1  UNL1       -0.0647
     20 C          64.2370   89.7315   14.6016 C.3     1  UNL1        0.0750
     21 C          65.0475   90.7452   13.8498 C.ar    1  UNL1       -0.0129
     22 C          66.4045   91.1418   14.3512 C.ar    1  UNL1       -0.0006
     23 C          67.2152   92.1555   13.5994 C.ar    1  UNL1        0.0399
     24 C          66.6688   92.7727   12.3461 C.ar    1  UNL1        0.1764
     25 C          65.3119   92.3761   11.8447 C.ar    1  UNL1        0.1761
     26 C          64.5013   91.3624   12.5965 C.ar    1  UNL1        0.0363
     27 O          65.0377   93.1491   10.5888 O.3     1  UNL1       -0.4346
     28 C          66.2251   94.0234   10.3140 C.3     1  UNL1        0.4294
     29 O          67.2333   93.7908   11.4001 O.3     1  UNL1       -0.4346
@<TRIPOS>BOND
     1     1     2    2
     2     2     3    1
     3     3     4   ar
     4     4     5   ar
     5     5     6   ar
     6     6     7   ar
     7     7     8   ar
     8     8     9    1
     9     9    10    1
    10    10    11    2
    11    11    20    1
    12    20    21    1
    13    21    22   ar
    14    22    23   ar
    15    23    24   ar
    16    24    25   ar
    17    25    26   ar
    18    25    27    1
    19    27    28    1
    20    28    29    1
    21    11    12    1
    22    12    13    2
    23    13    15    1
    24    15    16   ar
    25    16    17   ar
    26    17    18   ar
    27    18    19   ar
    28    13    14    1
    29    14     2    1
    30     8     3   ar
    31    14    10    1
    32    26    21   ar
    33    19    15   ar
    34    29    24    1
@<TRIPOS>MOLECULE
*****
 29 34 0 0 0
SMALL
GASTEIGER

@<TRIPOS>ATOM
      1 O          63.5877   91.8758    9.4904 O.2     1  UNL1       -0.2904
      2 C          63.0840   91.0640   10.6469 C.2     1  UNL1        0.1885
      3 C          61.9316   90.1228   10.4570 C.ar    1  UNL1        0.0700
      4 C          61.2829   89.9933    9.1108 C.ar    1  UNL1        0.0059
      5 C          60.1305   89.0521    8.9210 C.ar    1  UNL1        0.0003
      6 C          59.6268   88.2403   10.0775 C.ar    1  UNL1        0.0031
      7 C          60.2755   88.3698   11.4237 C.ar    1  UNL1        0.0376
      8 C          61.4279   89.3110   11.6135 C.ar    1  UNL1        0.1476
      9 O          62.0767   89.4405   12.9598 O.3     1  UNL1       -0.4557
     10 C          63.2291   90.3817   13.1496 C.2     1  UNL1        0.1491
     11 C          64.0624   90.7188   14.3503 C.2     1  UNL1        0.0940
     12 N          65.0811   91.7389   13.9361 N.2     1  UNL1       -0.2480
     13 C          64.8774   92.0323   12.4792 C.2     1  UNL1        0.0966
     14 C          63.7327   91.1935   11.9931 C.3     1  UNL1        0.1621
     15 C          65.6777   92.9953   11.6534 C.ar    1  UNL1        0.1251
     16 N          65.7692   94.4770   11.8685 N.ar    1  UNL1       -0.2356
     17 C          66.6752   95.0432   10.8155 C.ar    1  UNL1        0.1065
     18 C          67.1435   93.9113    9.9496 C.ar    1  UNL1        0.0575
     19 S          66.5271   92.6457   10.4675 S.2     1  UNL1       -0.0647
     20 C          63.9047   90.1378   15.7242 C.3     1  UNL1        0.0750
     21 C          63.7475   88.6563   15.8985 C.ar    1  UNL1       -0.0129
     22 C          63.0023   88.1153   17.0825 C.ar    1  UNL1       -0.0006
     23 C          62.8450   86.6338   17.2569 C.ar    1  UNL1        0.0399
     24 C          63.4330   85.6932   16.2471 C.ar    1  UNL1        0.1764
     25 C          64.1782   86.2342   15.0631 C.ar    1  UNL1        0.1761
     26 C          64.3355   87.7157   14.8887 C.ar    1  UNL1        0.0363
     27 O          64.6450   85.0714   14.2384 O.3     1  UNL1       -0.4346
     28 C          64.1883   83.8118   14.9128 C.3     1  UNL1        0.4294
     29 O          63.4392   84.1961   16.1543 O.3     1  UNL1       -0.4346
@<TRIPOS>BOND
     1     1     2    2
     2     2     3    1
     3     3     4   ar
     4     4     5   ar
     5     5     6   ar
     6     6     7   ar
     7     7     8   ar
     8     8     9    1
     9     9    10    1
    10    10    11    2
    11    11    20    1
    12    20    21    1
    13    21    22   ar
    14    22    23   ar
    15    23    24   ar
    16    24    25   ar
    17    25    26   ar
    18    25    27    1
    19    27    28    1
    20    28    29    1
    21    11    12    1
    22    12    13    2
    23    13    15    1
    24    15    16   ar
    25    16    17   ar
    26    17    18   ar
    27    18    19   ar
    28    13    14    1
    29    14     2    1
    30     8     3   ar
    31    14    10    1
    32    26    21   ar
    33    19    15   ar
    34    29    24    1
@<TRIPOS>MOLECULE
*****
 29 34 0 0 0
SMALL
GASTEIGER

@<TRIPOS>ATOM
      1 O          61.5610   85.2729   10.6161 O.2     1  UNL1       -0.2904
      2 C          62.3922   85.7998   11.7482 C.2     1  UNL1        0.1885
      3 C          62.9998   84.8502   12.7377 C.ar    1  UNL1        0.0700
      4 C          62.7763   83.3739   12.5951 C.ar    1  UNL1        0.0059
      5 C          63.3840   82.4244   13.5846 C.ar    1  UNL1        0.0003
      6 C          64.2152   82.9512   14.7167 C.ar    1  UNL1        0.0031
      7 C          64.4386   84.4276   14.8593 C.ar    1  UNL1        0.0376
      8 C          63.8310   85.3771   13.8698 C.ar    1  UNL1        0.1476
      9 O          64.0545   86.8535   14.0123 O.3     1  UNL1       -0.4557
     10 C          63.4468   87.8030   13.0228 C.2     1  UNL1        0.1491
     11 C          63.4927   89.2979   12.9076 C.2     1  UNL1        0.0940
     12 N          62.6899   89.6949   11.7043 N.2     1  UNL1       -0.2480
     13 C          62.1479   88.4454   11.0759 C.2     1  UNL1        0.0966
     14 C          62.6157   87.2761   11.8908 C.3     1  UNL1        0.1621
     15 C          61.2889   88.3771    9.8481 C.ar    1  UNL1        0.1251
     16 N          61.2271   87.2350    8.8777 N.ar    1  UNL1       -0.2356
     17 C          60.2408   87.5910    7.8050 C.ar    1  UNL1        0.1065
     18 C          59.6931   88.9532    8.1125 C.ar    1  UNL1        0.0575
     19 S          60.3408   89.4390    9.3752 S.2     1  UNL1       -0.0647
     20 C          64.2146   90.2317   13.8332 C.3     1  UNL1        0.0750
     21 C          64.9408   91.4224   13.2809 C.ar    1  UNL1       -0.0129
     22 C          65.7999   92.2605   14.1806 C.ar    1  UNL1       -0.0006
     23 C          66.5262   93.4513   13.6284 C.ar    1  UNL1        0.0399
     24 C          66.3933   93.8037   12.1765 C.ar    1  UNL1        0.1764
     25 C          65.5342   92.9655   11.2768 C.ar    1  UNL1        0.1761
     26 C          64.8080   91.7749   11.8290 C.ar    1  UNL1        0.0363
     27 O          65.5946   93.5539    9.8982 O.3     1  UNL1       -0.4346
     28 C          66.4909   94.7556    9.9460 C.3     1  UNL1        0.4294
     29 O          66.9846   94.9100   11.3540 O.3     1  UNL1       -0.4346
@<TRIPOS>BOND
     1     1     2    2
     2     2     3    1
     3     3     4   ar
     4     4     5   ar
     5     5     6   ar
     6     6     7   ar
     7     7     8   ar
     8     8     9    1
     9     9    10    1
    10    10    11    2
    11    11    20    1
    12    20    21    1
    13    21    22   ar
    14    22    23   ar
    15    23    24   ar
    16    24    25   ar
    17    25    26   ar
    18    25    27    1
    19    27    28    1
    20    28    29    1
    21    11    12    1
    22    12    13    2
    23    13    15    1
    24    15    16   ar
    25    16    17   ar
    26    17    18   ar
    27    18    19   ar
    28    13    14    1
    29    14     2    1
    30     8     3   ar
    31    14    10    1
    32    26    21   ar
    33    19    15   ar
    34    29    24    1
@<TRIPOS>MOLECULE
*****
 29 34 0 0 0
SMALL
GASTEIGER

@<TRIPOS>ATOM
      1 O          63.3890   91.1343   11.2679 O.2     1  UNL1       -0.2904
      2 C          63.0869   89.7212   11.6703 C.2     1  UNL1        0.1885
      3 C          62.1462   88.8918   10.8473 C.ar    1  UNL1        0.0700
      4 C          61.5077   89.4755    9.6219 C.ar    1  UNL1        0.0059
      5 C          60.5671   88.6461    8.7990 C.ar    1  UNL1        0.0003
      6 C          60.2650   87.2330    9.2015 C.ar    1  UNL1        0.0031
      7 C          60.9035   86.6493   10.4268 C.ar    1  UNL1        0.0376
      8 C          61.8441   87.4788   11.2498 C.ar    1  UNL1        0.1476
      9 O          62.4826   86.8951   12.4753 O.3     1  UNL1       -0.4557
     10 C          63.4233   87.7245   13.2982 C.2     1  UNL1        0.1491
     11 C          64.1970   87.4228   14.5473 C.2     1  UNL1        0.0940
     12 N          64.9773   88.6494   14.9169 N.2     1  UNL1       -0.2480
     13 C          64.6858   89.7092   13.8961 C.2     1  UNL1        0.0966
     14 C          63.7254   89.1376   12.8957 C.3     1  UNL1        0.1621
     15 C          65.2549   91.0969   13.8788 C.ar    1  UNL1        0.1251
     16 N          65.5143   91.9283   12.6575 N.ar    1  UNL1       -0.2356
     17 C          66.0842   93.2422   13.1037 C.ar    1  UNL1        0.1065
     18 C          66.1770   93.2227   14.6007 C.ar    1  UNL1        0.0575
     19 S          65.6645   91.8969   15.0798 S.2     1  UNL1       -0.0647
     20 C          64.1914   86.1227   15.2955 C.3     1  UNL1        0.0750
     21 C          63.9046   84.8414   14.5704 C.ar    1  UNL1       -0.0129
     22 C          64.7334   84.4499   13.3830 C.ar    1  UNL1       -0.0006
     23 C          64.4467   83.1685   12.6578 C.ar    1  UNL1        0.0399
     24 C          63.3312   82.2785   13.1201 C.ar    1  UNL1        0.1764
     25 C          62.5025   82.6700   14.3075 C.ar    1  UNL1        0.1761
     26 C          62.7892   83.9513   15.0326 C.ar    1  UNL1        0.0363
     27 O          61.4764   81.5987   14.5301 O.3     1  UNL1       -0.4346
     28 C          61.6710   80.5451   13.4803 C.3     1  UNL1        0.4294
     29 O          62.8174   80.9653   12.6088 O.3     1  UNL1       -0.4346
@<TRIPOS>BOND
     1     1     2    2
     2     2     3    1
     3     3     4   ar
     4     4     5   ar
     5     5     6   ar
     6     6     7   ar
     7     7     8   ar
     8     8     9    1
     9     9    10    1
    10    10    11    2
    11    11    20    1
    12    20    21    1
    13    21    22   ar
    14    22    23   ar
    15    23    24   ar
    16    24    25   ar
    17    25    26   ar
    18    25    27    1
    19    27    28    1
    20    28    29    1
    21    11    12    1
    22    12    13    2
    23    13    15    1
    24    15    16   ar
    25    16    17   ar
    26    17    18   ar
    27    18    19   ar
    28    13    14    1
    29    14     2    1
    30     8     3   ar
    31    14    10    1
    32    26    21   ar
    33    19    15   ar
    34    29    24    1
@<TRIPOS>MOLECULE
*****
 29 34 0 0 0
SMALL
GASTEIGER

@<TRIPOS>ATOM
      1 O          62.9536   83.6102   10.2498 O.2     1  UNL1       -0.2904
      2 C          63.0072   84.7523   11.2207 C.2     1  UNL1        0.1885
      3 C          63.4892   84.5229   12.6225 C.ar    1  UNL1        0.0700
      4 C          63.9176   83.1515   13.0534 C.ar    1  UNL1        0.0059
      5 C          64.3995   82.9222   14.4552 C.ar    1  UNL1        0.0003
      6 C          64.4532   84.0643   15.4261 C.ar    1  UNL1        0.0031
      7 C          64.0248   85.4358   14.9953 C.ar    1  UNL1        0.0376
      8 C          63.5428   85.6651   13.5935 C.ar    1  UNL1        0.1476
      9 O          63.1144   87.0365   13.1625 O.3     1  UNL1       -0.4557
     10 C          62.6325   87.2658   11.7607 C.2     1  UNL1        0.1491
     11 C          62.1491   88.4977   11.0544 C.2     1  UNL1        0.0940
     12 N          61.7968   88.1170    9.6470 N.2     1  UNL1       -0.2480
     13 C          62.0624   86.6498    9.4835 C.2     1  UNL1        0.0966
     14 C          62.5788   86.1237   10.7898 C.3     1  UNL1        0.1621
     15 C          61.8490   85.8491    8.2331 C.ar    1  UNL1        0.1251
     16 N          62.9026   85.0921    7.4803 N.ar    1  UNL1       -0.2356
     17 C          62.2493   84.4400    6.2979 C.ar    1  UNL1        0.1065
     18 C          60.7918   84.7941    6.3200 C.ar    1  UNL1        0.0575
     19 S          60.5444   85.6650    7.5160 S.2     1  UNL1       -0.0647
     20 C          62.0377   89.8695   11.6509 C.3     1  UNL1        0.0750
     21 C          63.2694   90.7010   11.8546 C.ar    1  UNL1       -0.0129
     22 C          63.9586   90.7067   13.1869 C.ar    1  UNL1       -0.0006
     23 C          65.1903   91.5382   13.3908 C.ar    1  UNL1        0.0399
     24 C          65.7328   92.3641   12.2623 C.ar    1  UNL1        0.1764
     25 C          65.0436   92.3585   10.9300 C.ar    1  UNL1        0.1761
     26 C          63.8120   91.5270   10.7261 C.ar    1  UNL1        0.0363
     27 O          65.8049   93.2669   10.0105 O.3     1  UNL1       -0.4346
     28 C          66.9645   93.8339   10.7745 C.3     1  UNL1        0.4294
     29 O          66.9200   93.2759   12.1662 O.3     1  UNL1       -0.4346
@<TRIPOS>BOND
     1     1     2    2
     2     2     3    1
     3     3     4   ar
     4     4     5   ar
     5     5     6   ar
     6     6     7   ar
     7     7     8   ar
     8     8     9    1
     9     9    10    1
    10    10    11    2
    11    11    20    1
    12    20    21    1
    13    21    22   ar
    14    22    23   ar
    15    23    24   ar
    16    24    25   ar
    17    25    26   ar
    18    25    27    1
    19    27    28    1
    20    28    29    1
    21    11    12    1
    22    12    13    2
    23    13    15    1
    24    15    16   ar
    25    16    17   ar
    26    17    18   ar
    27    18    19   ar
    28    13    14    1
    29    14     2    1
    30     8     3   ar
    31    14    10    1
    32    26    21   ar
    33    19    15   ar
    34    29    24    1
@<TRIPOS>MOLECULE
*****
 29 34 0 0 0
SMALL
GASTEIGER

@<TRIPOS>ATOM
      1 O          61.9639   89.7724   10.1912 O.2     1  UNL1       -0.2904
      2 C          62.5911   89.0323   11.3352 C.2     1  UNL1        0.1885
      3 C          63.4452   89.7670   12.3256 C.ar    1  UNL1        0.0700
      4 C          63.6721   91.2417   12.1719 C.ar    1  UNL1        0.0059
      5 C          64.5262   91.9763   13.1623 C.ar    1  UNL1        0.0003
      6 C          65.1533   91.2362   14.3064 C.ar    1  UNL1        0.0031
      7 C          64.9264   89.7615   14.4601 C.ar    1  UNL1        0.0376
      8 C          64.0724   89.0269   13.4697 C.ar    1  UNL1        0.1476
      9 O          63.8455   87.5521   13.6234 O.3     1  UNL1       -0.4557
     10 C          62.9914   86.8174   12.6330 C.2     1  UNL1        0.1491
     11 C          62.5917   85.3756   12.5271 C.2     1  UNL1        0.0940
     12 N          61.7174   85.2245   11.3176 N.2     1  UNL1       -0.2480
     13 C          61.5769   86.5730   10.6760 C.2     1  UNL1        0.0966
     14 C          62.3642   87.5575   11.4889 C.3     1  UNL1        0.1621
     15 C          60.7876   86.8828    9.4387 C.ar    1  UNL1        0.1251
     16 N          59.7769   87.9811    9.2894 N.ar    1  UNL1       -0.2356
     17 C          59.2350   87.9257    7.8918 C.ar    1  UNL1        0.1065
     18 C          59.9108   86.7930    7.1773 C.ar    1  UNL1        0.0575
     19 S          60.8703   86.1485    8.1333 S.2     1  UNL1       -0.0647
     20 C          62.9953   84.2775   13.4659 C.3     1  UNL1        0.0750
     21 C          62.8717   82.8443   13.0411 C.ar    1  UNL1       -0.0129
     22 C          62.5007   81.7937   14.0453 C.ar    1  UNL1       -0.0006
     23 C          62.3771   80.3603   13.6205 C.ar    1  UNL1        0.0399
     24 C          62.6246   79.9777   12.1914 C.ar    1  UNL1        0.1764
     25 C          62.9956   81.0283   11.1872 C.ar    1  UNL1        0.1761
     26 C          63.1192   82.4616   11.6120 C.ar    1  UNL1        0.0363
     27 O          63.1784   80.3559    9.8588 O.3     1  UNL1       -0.4346
     28 C          62.9202   78.8897   10.0422 C.3     1  UNL1        0.4294
     29 O          62.5779   78.6560   11.4838 O.3     1  UNL1       -0.4346
@<TRIPOS>BOND
     1     1     2    2
     2     2     3    1
     3     3     4   ar
     4     4     5   ar
     5     5     6   ar
     6     6     7   ar
     7     7     8   ar
     8     8     9    1
     9     9    10    1
    10    10    11    2
    11    11    20    1
    12    20    21    1
    13    21    22   ar
    14    22    23   ar
    15    23    24   ar
    16    24    25   ar
    17    25    26   ar
    18    25    27    1
    19    27    28    1
    20    28    29    1
    21    11    12    1
    22    12    13    2
    23    13    15    1
    24    15    16   ar
    25    16    17   ar
    26    17    18   ar
    27    18    19   ar
    28    13    14    1
    29    14     2    1
    30     8     3   ar
    31    14    10    1
    32    26    21   ar
    33    19    15   ar
    34    29    24    1
@<TRIPOS>MOLECULE
*****
 29 34 0 0 0
SMALL
GASTEIGER

@<TRIPOS>ATOM
      1 O          63.5466   92.0293   11.4577 O.2     1  UNL1       -0.2904
      2 C          64.2740   91.3074   12.5530 C.2     1  UNL1        0.1885
      3 C          65.3567   92.0056   13.3214 C.ar    1  UNL1        0.0700
      4 C          65.7121   93.4256   12.9943 C.ar    1  UNL1        0.0059
      5 C          66.7948   94.1237   13.7626 C.ar    1  UNL1        0.0003
      6 C          67.5221   93.4018   14.8580 C.ar    1  UNL1        0.0031
      7 C          67.1667   91.9817   15.1850 C.ar    1  UNL1        0.0376
      8 C          66.0840   91.2836   14.4167 C.ar    1  UNL1        0.1476
      9 O          65.7286   89.8634   14.7437 O.3     1  UNL1       -0.4557
     10 C          64.6459   89.1653   13.9754 C.2     1  UNL1        0.1491
     11 C          64.0809   87.7791   14.0716 C.2     1  UNL1        0.0940
     12 N          63.0044   87.6443   13.0357 N.2     1  UNL1       -0.2480
     13 C          62.9041   88.9472   12.2993 C.2     1  UNL1        0.0966
     14 C          63.9185   89.8873   12.8801 C.3     1  UNL1        0.1621
     15 C          61.9558   89.2560   11.1789 C.ar    1  UNL1        0.1251
     16 N          62.0807   88.7803    9.7618 N.ar    1  UNL1       -0.2356
     17 C          60.9182   89.3250    8.9858 C.ar    1  UNL1        0.1065
     18 C          60.0749   90.1373    9.9235 C.ar    1  UNL1        0.0575
     19 S          60.7162   90.0947   11.2788 S.2     1  UNL1       -0.0647
     20 C          64.5161   86.7145   15.0346 C.3     1  UNL1        0.0750
     21 C          63.9489   85.3300   14.9286 C.ar    1  UNL1       -0.0129
     22 C          62.8378   84.9027   15.8412 C.ar    1  UNL1       -0.0006
     23 C          62.2705   83.5181   15.7352 C.ar    1  UNL1        0.0399
     24 C          62.8144   82.5608   14.7165 C.ar    1  UNL1        0.1764
     25 C          63.9255   82.9880   13.8039 C.ar    1  UNL1        0.1761
     26 C          64.4927   84.3726   13.9099 C.ar    1  UNL1        0.0363
     27 O          64.2561   81.8341   12.9043 O.3     1  UNL1       -0.4346
     28 C          63.3493   80.6938   13.2610 C.3     1  UNL1        0.4294
     29 O          62.4583   81.1429   14.3810 O.3     1  UNL1       -0.4346
@<TRIPOS>BOND
     1     1     2    2
     2     2     3    1
     3     3     4   ar
     4     4     5   ar
     5     5     6   ar
     6     6     7   ar
     7     7     8   ar
     8     8     9    1
     9     9    10    1
    10    10    11    2
    11    11    20    1
    12    20    21    1
    13    21    22   ar
    14    22    23   ar
    15    23    24   ar
    16    24    25   ar
    17    25    26   ar
    18    25    27    1
    19    27    28    1
    20    28    29    1
    21    11    12    1
    22    12    13    2
    23    13    15    1
    24    15    16   ar
    25    16    17   ar
    26    17    18   ar
    27    18    19   ar
    28    13    14    1
    29    14     2    1
    30     8     3   ar
    31    14    10    1
    32    26    21   ar
    33    19    15   ar
    34    29    24    1
