@<TRIPOS>MOLECULE
*****
 22 25 0 0 0
SMALL
GASTEIGER

@<TRIPOS>ATOM
      1 C          62.4230   89.0978   10.8449 C.2     1  UNL1        0.3752
      2 N          63.0895   90.4330   10.6938 N.2     1  UNL1       -0.0311
      3 C          63.8724   90.7043   11.9443 C.2     1  UNL1        0.2294
      4 C          64.7280   91.8637   12.3611 C.2     1  UNL1        0.0400
      5 C          65.4009   91.8556   13.7016 C.2     1  UNL1       -0.0032
      6 C          65.2182   90.6880   14.6254 C.2     1  UNL1       -0.0175
      7 C          64.3626   89.5286   14.2086 C.3     1  UNL1        0.1037
      8 C          63.6897   89.5368   12.8681 C.2     1  UNL1        0.2175
      9 N          62.7939   88.5439   12.1886 N.2     1  UNL1       -0.0347
     10 C          59.7755   87.1038    7.8011 C.ar    1  UNL1        0.0000
     11 C          60.7906   86.2972    8.5553 C.ar    1  UNL1        0.0003
     12 C          61.6732   86.9618    9.5699 C.ar    1  UNL1        0.0077
     13 C          61.5405   88.4331    9.8302 C.ar    1  UNL1        0.0884
     14 C          60.5253   89.2397    9.0761 C.ar    1  UNL1        0.0077
     15 C          59.6428   88.5750    8.0615 C.ar    1  UNL1        0.0003
     16 C          64.9107   93.0313   11.4372 C.3     1  UNL1        0.1030
     17 N          66.1757   93.1683   10.6428 N.3     1  UNL1       -0.2689
     18 C          67.1542   92.0327   10.5890 C.3     1  UNL1        0.0724
     19 C          68.4191   92.1697    9.7945 C.3     1  UNL1        0.0174
     20 C          68.7055   93.4422    9.0538 C.3     1  UNL1        0.0029
     21 C          67.7269   94.5778    9.1075 C.3     1  UNL1        0.0174
     22 C          66.4620   94.4409    9.9020 C.3     1  UNL1        0.0724
@<TRIPOS>BOND
     1    10    11   ar
     2    11    12   ar
     3    12    13   ar
     4    13     1    1
     5     1     2    2
     6     2     3    1
     7     3     4    2
     8     4    16    1
     9    16    17    1
    10    17    18    1
    11    18    19    1
    12    19    20    1
    13    20    21    1
    14    21    22    1
    15     4     5    1
    16     5     6    2
    17     6     7    1
    18     7     8    1
    19     8     9    2
    20    13    14   ar
    21    14    15   ar
    22    15    10   ar
    23     9     1    1
    24     8     3    1
    25    22    17    1
@<TRIPOS>MOLECULE
*****
 22 25 0 0 0
SMALL
GASTEIGER

@<TRIPOS>ATOM
      1 C          62.3125   89.4278   10.8984 C.2     1  UNL1        0.3752
      2 N          62.3610   89.3122   12.3931 N.2     1  UNL1       -0.0311
      3 C          63.3945   90.2744   12.8992 C.2     1  UNL1        0.2294
      4 C          63.8744   90.5955   14.2836 C.2     1  UNL1        0.0400
      5 C          64.9445   91.6269   14.4861 C.2     1  UNL1       -0.0032
      6 C          65.5348   92.3372   13.3041 C.2     1  UNL1       -0.0175
      7 C          65.0549   92.0160   11.9197 C.3     1  UNL1        0.1037
      8 C          63.9848   90.9847   11.7172 C.2     1  UNL1        0.2175
      9 N          63.3161   90.4615   10.4807 N.2     1  UNL1       -0.0347
     10 C          59.6278   87.0853    8.1498 C.ar    1  UNL1        0.0000
     11 C          60.5600   86.3667    9.0796 C.ar    1  UNL1        0.0003
     12 C          61.4549   87.1475    9.9958 C.ar    1  UNL1        0.0077
     13 C          61.4176   88.6469    9.9822 C.ar    1  UNL1        0.0884
     14 C          60.4854   89.3655    9.0523 C.ar    1  UNL1        0.0077
     15 C          59.5905   88.5847    8.1362 C.ar    1  UNL1        0.0003
     16 C          63.2840   89.8852   15.4656 C.3     1  UNL1        0.1030
     17 N          63.5302   88.4182   15.6587 N.3     1  UNL1       -0.2689
     18 C          62.9291   87.7051   16.8335 C.3     1  UNL1        0.0724
     19 C          63.1752   86.2381   17.0266 C.3     1  UNL1        0.0174
     20 C          64.0225   85.4842   16.0449 C.3     1  UNL1        0.0029
     21 C          64.6236   86.1972   14.8701 C.3     1  UNL1        0.0174
     22 C          64.3775   87.6643   14.6770 C.3     1  UNL1        0.0724
@<TRIPOS>BOND
     1    10    11   ar
     2    11    12   ar
     3    12    13   ar
     4    13     1    1
     5     1     2    2
     6     2     3    1
     7     3     4    2
     8     4    16    1
     9    16    17    1
    10    17    18    1
    11    18    19    1
    12    19    20    1
    13    20    21    1
    14    21    22    1
    15     4     5    1
    16     5     6    2
    17     6     7    1
    18     7     8    1
    19     8     9    2
    20    13    14   ar
    21    14    15   ar
    22    15    10   ar
    23     9     1    1
    24     8     3    1
    25    22    17    1
@<TRIPOS>MOLECULE
*****
 22 25 0 0 0
SMALL
GASTEIGER

@<TRIPOS>ATOM
      1 C          63.3995   90.2931   12.0873 C.2     1  UNL1        0.3752
      2 N          64.1426   91.5292   11.6750 N.2     1  UNL1       -0.0311
      3 C          64.9292   92.0130   12.8571 C.2     1  UNL1        0.2294
      4 C          65.8462   93.1859   13.0405 C.2     1  UNL1        0.0400
      5 C          66.5063   93.4216   14.3667 C.2     1  UNL1       -0.0032
      6 C          66.2494   92.4845   15.5094 C.2     1  UNL1       -0.0175
      7 C          65.3324   91.3117   15.3260 C.3     1  UNL1        0.1037
      8 C          64.6723   91.0760   13.9998 C.2     1  UNL1        0.2175
      9 N          63.7269   90.0130   13.5241 N.2     1  UNL1       -0.0347
     10 C          60.6679   87.8535    9.4727 C.ar    1  UNL1        0.0000
     11 C          61.5856   87.1700   10.4424 C.ar    1  UNL1        0.0003
     12 C          62.4962   87.9831   11.3140 C.ar    1  UNL1        0.0077
     13 C          62.4890   89.4799   11.2157 C.ar    1  UNL1        0.0884
     14 C          61.5712   90.1634   10.2459 C.ar    1  UNL1        0.0077
     15 C          60.6607   89.3502    9.3744 C.ar    1  UNL1        0.0003
     16 C          66.1030   94.1230   11.8977 C.3     1  UNL1        0.1030
     17 N          66.9459   93.6793   10.7390 N.3     1  UNL1       -0.2689
     18 C          67.1686   94.6014    9.5770 C.3     1  UNL1        0.0724
     19 C          68.0115   94.1578    8.4183 C.3     1  UNL1        0.0174
     20 C          68.6316   92.7920    8.4214 C.3     1  UNL1        0.0029
     21 C          68.4090   91.8698    9.5834 C.3     1  UNL1        0.0174
     22 C          67.5661   92.3135   10.7422 C.3     1  UNL1        0.0724
@<TRIPOS>BOND
     1    10    11   ar
     2    11    12   ar
     3    12    13   ar
     4    13     1    1
     5     1     2    2
     6     2     3    1
     7     3     4    2
     8     4    16    1
     9    16    17    1
    10    17    18    1
    11    18    19    1
    12    19    20    1
    13    20    21    1
    14    21    22    1
    15     4     5    1
    16     5     6    2
    17     6     7    1
    18     7     8    1
    19     8     9    2
    20    13    14   ar
    21    14    15   ar
    22    15    10   ar
    23     9     1    1
    24     8     3    1
    25    22    17    1
@<TRIPOS>MOLECULE
*****
 22 25 0 0 0
SMALL
GASTEIGER

@<TRIPOS>ATOM
      1 C          62.1997   85.7877   11.5859 C.2     1  UNL1        0.3752
      2 N          61.9000   87.2535   11.6944 N.2     1  UNL1       -0.0311
      3 C          61.1897   87.6752   10.4422 C.2     1  UNL1        0.2294
      4 C          60.6518   89.0009    9.9915 C.2     1  UNL1        0.0400
      5 C          59.9746   89.1215    8.6585 C.2     1  UNL1       -0.0032
      6 C          59.8354   87.9164    7.7763 C.2     1  UNL1       -0.0175
      7 C          60.3733   86.5907    8.2271 C.3     1  UNL1        0.1037
      8 C          61.0505   86.4701    9.5600 C.2     1  UNL1        0.2175
      9 N          61.6747   85.3036   10.2668 N.2     1  UNL1       -0.0347
     10 C          64.3043   83.2825   14.6753 C.ar    1  UNL1        0.0000
     11 C          64.4647   84.7739   14.6830 C.ar    1  UNL1        0.0003
     12 C          63.7632   85.6090   13.6532 C.ar    1  UNL1        0.0077
     13 C          62.9013   84.9527   12.6158 C.ar    1  UNL1        0.0884
     14 C          62.7409   83.4613   12.6081 C.ar    1  UNL1        0.0077
     15 C          63.4424   82.6262   13.6379 C.ar    1  UNL1        0.0003
     16 C          60.7911   90.2060   10.8738 C.3     1  UNL1        0.1030
     17 N          62.1538   90.7292   11.2191 N.3     1  UNL1       -0.2689
     18 C          62.6747   90.5984   12.6196 C.3     1  UNL1        0.0724
     19 C          64.0374   91.1216   12.9650 C.3     1  UNL1        0.0174
     20 C          64.8792   91.7756   11.9098 C.3     1  UNL1        0.0029
     21 C          64.3584   91.9064   10.5091 C.3     1  UNL1        0.0174
     22 C          62.9957   91.3832   10.1638 C.3     1  UNL1        0.0724
@<TRIPOS>BOND
     1    10    11   ar
     2    11    12   ar
     3    12    13   ar
     4    13     1    1
     5     1     2    2
     6     2     3    1
     7     3     4    2
     8     4    16    1
     9    16    17    1
    10    17    18    1
    11    18    19    1
    12    19    20    1
    13    20    21    1
    14    21    22    1
    15     4     5    1
    16     5     6    2
    17     6     7    1
    18     7     8    1
    19     8     9    2
    20    13    14   ar
    21    14    15   ar
    22    15    10   ar
    23     9     1    1
    24     8     3    1
    25    22    17    1
@<TRIPOS>MOLECULE
*****
 22 25 0 0 0
SMALL
GASTEIGER

@<TRIPOS>ATOM
      1 C          63.9072   89.4703   13.9736 C.2     1  UNL1        0.3752
      2 N          64.2919   88.0222   13.9026 N.2     1  UNL1       -0.0311
      3 C          63.8718   87.3676   15.1853 C.2     1  UNL1        0.2294
      4 C          63.9927   85.9562   15.6784 C.2     1  UNL1        0.0400
      5 C          63.4694   85.5882   17.0351 C.2     1  UNL1       -0.0032
      6 C          62.8250   86.6317   17.8987 C.2     1  UNL1       -0.0175
      7 C          62.7041   88.0432   17.4056 C.3     1  UNL1        0.1037
      8 C          63.2274   88.4111   16.0489 C.2     1  UNL1        0.2175
      9 N          63.2493   89.7106   15.3001 N.2     1  UNL1       -0.0347
     10 C          64.6042   92.5524   10.7698 C.ar    1  UNL1        0.0000
     11 C          63.5873   91.4698   10.5605 C.ar    1  UNL1        0.0003
     12 C          63.3549   90.4424   11.6284 C.ar    1  UNL1        0.0077
     13 C          64.1395   90.4977   12.9056 C.ar    1  UNL1        0.0884
     14 C          65.1564   91.5803   13.1149 C.ar    1  UNL1        0.0077
     15 C          65.3887   92.6077   12.0470 C.ar    1  UNL1        0.0003
     16 C          64.6371   84.9126   14.8147 C.3     1  UNL1        0.1030
     17 N          63.7927   83.8766   14.1339 N.3     1  UNL1       -0.2689
     18 C          62.9410   82.9492   14.9490 C.3     1  UNL1        0.0724
     19 C          62.0965   81.9132   14.2682 C.3     1  UNL1        0.0174
     20 C          62.1037   81.8046   12.7722 C.3     1  UNL1        0.0029
     21 C          62.9554   82.7320   11.9569 C.3     1  UNL1        0.0174
     22 C          63.7999   83.7680   12.6378 C.3     1  UNL1        0.0724
@<TRIPOS>BOND
     1    10    11   ar
     2    11    12   ar
     3    12    13   ar
     4    13     1    1
     5     1     2    2
     6     2     3    1
     7     3     4    2
     8     4    16    1
     9    16    17    1
    10    17    18    1
    11    18    19    1
    12    19    20    1
    13    20    21    1
    14    21    22    1
    15     4     5    1
    16     5     6    2
    17     6     7    1
    18     7     8    1
    19     8     9    2
    20    13    14   ar
    21    14    15   ar
    22    15    10   ar
    23     9     1    1
    24     8     3    1
    25    22    17    1
@<TRIPOS>MOLECULE
*****
 22 25 0 0 0
SMALL
GASTEIGER

@<TRIPOS>ATOM
      1 C          62.0652   86.0121   11.1029 C.2     1  UNL1        0.3752
      2 N          63.0441   86.1666   12.2288 N.2     1  UNL1       -0.0311
      3 C          63.3733   84.7983   12.7479 C.2     1  UNL1        0.2294
      4 C          64.2791   84.3340   13.8498 C.2     1  UNL1        0.0400
      5 C          64.4093   82.8694   14.1465 C.2     1  UNL1       -0.0032
      6 C          63.6338   81.8692   13.3414 C.2     1  UNL1       -0.0175
      7 C          62.7281   82.3336   12.2396 C.3     1  UNL1        0.1037
      8 C          62.5979   83.7981   11.9428 C.2     1  UNL1        0.2175
      9 N          61.7894   84.5482   10.9261 N.2     1  UNL1       -0.0347
     10 C          60.2709   89.3531    8.6805 C.ar    1  UNL1        0.0000
     11 C          59.8631   87.9336    8.4181 C.ar    1  UNL1        0.0003
     12 C          60.4612   86.8200    9.2255 C.ar    1  UNL1        0.0077
     13 C          61.4671   87.1258   10.2954 C.ar    1  UNL1        0.0884
     14 C          61.8748   88.5452   10.5578 C.ar    1  UNL1        0.0077
     15 C          61.2767   89.6589    9.7504 C.ar    1  UNL1        0.0003
     16 C          65.0545   85.3342   14.6549 C.3     1  UNL1        0.1030
     17 N          64.3353   86.4322   15.3809 N.3     1  UNL1       -0.2689
     18 C          63.5220   86.1171   16.6012 C.3     1  UNL1        0.0724
     19 C          62.8027   87.2151   17.3272 C.3     1  UNL1        0.0174
     20 C          62.8967   88.6281   16.8329 C.3     1  UNL1        0.0029
     21 C          63.7100   88.9433   15.6125 C.3     1  UNL1        0.0174
     22 C          64.4293   87.8453   14.8865 C.3     1  UNL1        0.0724
@<TRIPOS>BOND
     1    10    11   ar
     2    11    12   ar
     3    12    13   ar
     4    13     1    1
     5     1     2    2
     6     2     3    1
     7     3     4    2
     8     4    16    1
     9    16    17    1
    10    17    18    1
    11    18    19    1
    12    19    20    1
    13    20    21    1
    14    21    22    1
    15     4     5    1
    16     5     6    2
    17     6     7    1
    18     7     8    1
    19     8     9    2
    20    13    14   ar
    21    14    15   ar
    22    15    10   ar
    23     9     1    1
    24     8     3    1
    25    22    17    1
@<TRIPOS>MOLECULE
*****
 22 25 0 0 0
SMALL
GASTEIGER

@<TRIPOS>ATOM
      1 C          64.2756   89.5641   14.3086 C.2     1  UNL1        0.3752
      2 N          63.7147   89.7898   12.9359 N.2     1  UNL1       -0.0311
      3 C          64.3434   91.0316   12.3767 C.2     1  UNL1        0.2294
      4 C          64.1739   91.7390   11.0649 C.2     1  UNL1        0.0400
      5 C          64.9539   92.9882   10.7802 C.2     1  UNL1       -0.0032
      6 C          65.9033   93.5300   11.8073 C.2     1  UNL1       -0.0175
      7 C          66.0727   92.8227   13.1191 C.3     1  UNL1        0.1037
      8 C          65.2928   91.5734   13.4038 C.2     1  UNL1        0.2175
      9 N          65.2509   90.6665   14.5978 N.2     1  UNL1       -0.0347
     10 C          63.2183   86.1751   17.0739 C.ar    1  UNL1        0.0000
     11 C          62.8379   87.5813   17.4314 C.ar    1  UNL1        0.0003
     12 C          63.1903   88.7110   16.5097 C.ar    1  UNL1        0.0077
     13 C          63.9232   88.4344   15.2305 C.ar    1  UNL1        0.0884
     14 C          64.3035   87.0282   14.8730 C.ar    1  UNL1        0.0077
     15 C          63.9511   85.8985   15.7947 C.ar    1  UNL1        0.0003
     16 C          63.2244   91.1971   10.0377 C.3     1  UNL1        0.1030
     17 N          62.1476   90.2357   10.4451 N.3     1  UNL1       -0.2689
     18 C          62.3145   88.7681   10.1840 C.3     1  UNL1        0.0724
     19 C          61.2376   87.8066   10.5914 C.3     1  UNL1        0.0174
     20 C          59.9939   88.3127   11.2599 C.3     1  UNL1        0.0029
     21 C          59.8270   89.7804   11.5211 C.3     1  UNL1        0.0174
     22 C          60.9038   90.7419   11.1137 C.3     1  UNL1        0.0724
@<TRIPOS>BOND
     1    10    11   ar
     2    11    12   ar
     3    12    13   ar
     4    13     1    1
     5     1     2    2
     6     2     3    1
     7     3     4    2
     8     4    16    1
     9    16    17    1
    10    17    18    1
    11    18    19    1
    12    19    20    1
    13    20    21    1
    14    21    22    1
    15     4     5    1
    16     5     6    2
    17     6     7    1
    18     7     8    1
    19     8     9    2
    20    13    14   ar
    21    14    15   ar
    22    15    10   ar
    23     9     1    1
    24     8     3    1
    25    22    17    1
@<TRIPOS>MOLECULE
*****
 22 25 0 0 0
SMALL
GASTEIGER

@<TRIPOS>ATOM
      1 C          63.9290   89.3403   13.5524 C.2     1  UNL1        0.3752
      2 N          63.9984   87.8682   13.8319 N.2     1  UNL1       -0.0311
      3 C          63.2675   87.1531   12.7344 C.2     1  UNL1        0.2294
      4 C          63.0092   85.6970   12.4835 C.2     1  UNL1        0.0400
      5 C          62.2297   85.2709   11.2748 C.2     1  UNL1       -0.0032
      6 C          61.7085   86.3010   10.3171 C.2     1  UNL1       -0.0175
      7 C          61.9669   87.7571   10.5681 C.3     1  UNL1        0.1037
      8 C          62.7463   88.1832   11.7767 C.2     1  UNL1        0.2175
      9 N          63.1551   89.5349   12.2822 N.2     1  UNL1       -0.0347
     10 C          65.7266   92.6004   16.0803 C.ar    1  UNL1        0.0000
     11 C          64.5054   91.8702   16.5553 C.ar    1  UNL1        0.0003
     12 C          63.9062   90.7835   15.7126 C.ar    1  UNL1        0.0077
     13 C          64.5282   90.4270   14.3951 C.ar    1  UNL1        0.0884
     14 C          65.7494   91.1572   13.9202 C.ar    1  UNL1        0.0077
     15 C          66.3486   92.2439   14.7628 C.ar    1  UNL1        0.0003
     16 C          63.5304   84.6668   13.4413 C.3     1  UNL1        0.1030
     17 N          63.0599   83.2459   13.3436 N.3     1  UNL1       -0.2689
     18 C          62.1412   82.6865   14.3891 C.3     1  UNL1        0.0724
     19 C          61.6707   81.2655   14.2914 C.3     1  UNL1        0.0174
     20 C          62.1190   80.4040   13.1483 C.3     1  UNL1        0.0029
     21 C          63.0377   80.9634   12.1028 C.3     1  UNL1        0.0174
     22 C          63.5082   82.3843   12.2004 C.3     1  UNL1        0.0724
@<TRIPOS>BOND
     1    10    11   ar
     2    11    12   ar
     3    12    13   ar
     4    13     1    1
     5     1     2    2
     6     2     3    1
     7     3     4    2
     8     4    16    1
     9    16    17    1
    10    17    18    1
    11    18    19    1
    12    19    20    1
    13    20    21    1
    14    21    22    1
    15     4     5    1
    16     5     6    2
    17     6     7    1
    18     7     8    1
    19     8     9    2
    20    13    14   ar
    21    14    15   ar
    22    15    10   ar
    23     9     1    1
    24     8     3    1
    25    22    17    1
@<TRIPOS>MOLECULE
*****
 22 25 0 0 0
SMALL
GASTEIGER

@<TRIPOS>ATOM
      1 C          62.3223   85.6335   11.1916 C.2     1  UNL1        0.3752
      2 N          62.5520   86.9472   11.8781 N.2     1  UNL1       -0.0311
      3 C          61.8015   88.0030   11.1217 C.2     1  UNL1        0.2294
      4 C          61.6600   89.4810   11.3347 C.2     1  UNL1        0.0400
      5 C          60.8250   90.2979   10.3936 C.2     1  UNL1       -0.0032
      6 C          60.1316   89.6366    9.2395 C.2     1  UNL1       -0.0175
      7 C          60.2731   88.1586    9.0266 C.3     1  UNL1        0.1037
      8 C          61.1080   87.3418    9.9676 C.2     1  UNL1        0.2175
      9 N          61.4299   85.8774   10.0108 N.2     1  UNL1       -0.0347
     10 C          64.0136   81.6587   12.4525 C.ar    1  UNL1        0.0000
     11 C          63.2865   82.5140   13.4474 C.ar    1  UNL1        0.0003
     12 C          62.7228   83.8389   13.0271 C.ar    1  UNL1        0.0077
     13 C          62.8861   84.3085   11.6119 C.ar    1  UNL1        0.0884
     14 C          63.6132   83.4532   10.6170 C.ar    1  UNL1        0.0077
     15 C          64.1769   82.1283   11.0373 C.ar    1  UNL1        0.0003
     16 C          62.3535   90.1423   12.4888 C.3     1  UNL1        0.1030
     17 N          63.5794   90.9731   12.2509 N.3     1  UNL1       -0.2689
     18 C          63.8672   91.5100   10.8802 C.3     1  UNL1        0.0724
     19 C          65.0932   92.3409   10.6422 C.3     1  UNL1        0.0174
     20 C          66.0314   92.6348   11.7750 C.3     1  UNL1        0.0029
     21 C          65.7437   92.0979   13.1458 C.3     1  UNL1        0.0174
     22 C          64.5177   91.2670   13.3837 C.3     1  UNL1        0.0724
@<TRIPOS>BOND
     1    10    11   ar
     2    11    12   ar
     3    12    13   ar
     4    13     1    1
     5     1     2    2
     6     2     3    1
     7     3     4    2
     8     4    16    1
     9    16    17    1
    10    17    18    1
    11    18    19    1
    12    19    20    1
    13    20    21    1
    14    21    22    1
    15     4     5    1
    16     5     6    2
    17     6     7    1
    18     7     8    1
    19     8     9    2
    20    13    14   ar
    21    14    15   ar
    22    15    10   ar
    23     9     1    1
    24     8     3    1
    25    22    17    1
