@<TRIPOS>MOLECULE
*****
 36 41 0 0 0
SMALL
GASTEIGER

@<TRIPOS>ATOM
      1 C          63.3549   92.8462    1.4913 C.ar    1  UNL1        0.1028
      2 C          64.8246   93.1166    1.3604 C.ar    1  UNL1        0.0131
      3 C          65.3540   93.8084    0.1394 C.ar    1  UNL1       -0.0015
      4 C          64.6838   94.3598   -1.1333 C.ar    1  UNL1        0.0035
      5 C          63.7220   93.7363   -0.1658 C.ar    1  UNL1        0.0358
      6 C          62.4148   93.2677    0.4012 C.ar    1  UNL1        0.1545
      7 O          60.9386   93.0173    0.4909 O.3     1  UNL1       -0.4528
      8 C          59.2489   93.1050   -0.1457 C.ar    1  UNL1        0.1453
      9 C          58.1864   92.5130    0.7321 C.ar    1  UNL1        0.0375
     10 C          56.7522   92.5361    0.2933 C.ar    1  UNL1        0.0031
     11 C          56.3805   93.1512   -1.0233 C.ar    1  UNL1        0.0002
     12 C          57.4430   93.7432   -1.9011 C.ar    1  UNL1        0.0042
     13 C          58.8772   93.7202   -1.4623 C.ar    1  UNL1        0.0375
     14 C          57.1159   94.3682   -3.2249 C.ar    1  UNL1        0.0138
     15 C          55.7310   93.9666   -2.8116 C.ar    1  UNL1        0.0012
     16 C          54.5657   94.2595   -3.7095 C.ar    1  UNL1        0.0001
     17 C          54.7853   94.9540   -5.0208 C.ar    1  UNL1        0.0013
     18 C          56.1701   95.3556   -5.4341 C.ar    1  UNL1        0.0149
     19 C          57.3355   95.0627   -4.5362 C.ar    1  UNL1        0.0538
     20 N          58.0721   95.7329   -5.6578 N.am    1  UNL1       -0.2575
     21 C          57.7988   96.3689   -6.9886 C.3     1  UNL1        0.1001
     22 C          59.1061   96.8375   -7.5555 C.3     1  UNL1        0.0470
     23 C          60.6421   96.6542   -6.7724 C.3     1  UNL1        0.1340
     24 N          62.1284   96.7808   -6.6149 N.3     1  UNL1       -0.2863
     25 C          63.4845   96.6511   -5.9869 C.3     1  UNL1        0.1151
     26 C          64.5271   96.2826   -4.9734 C.ar    1  UNL1        0.0739
     27 C          65.6458   96.8534   -5.7937 C.ar    1  UNL1        0.1147
     28 N          66.9255   96.6486   -5.0385 N.ar    1  UNL1       -0.2226
     29 C          66.5977   95.9514   -3.7515 C.ar    1  UNL1        0.1786
     30 N          65.1155   95.7252   -3.7113 N.ar    1  UNL1       -0.3070
     31 C          65.1702   95.0540   -2.3709 C.3     1  UNL1        0.1341
     32 C          59.2263   96.2885   -6.4385 C.2     1  UNL1        0.2437
     33 O          58.6909   96.4945   -6.9920 O.2     1  UNL1       -0.2731
     34 H          62.1652   97.7919   -6.7440 H       1  UNL1        0.1240
     35 N          62.2961   91.4624    3.9335 N.1     1  UNL1       -0.1907
     36 C          62.8255   92.1544    2.7124 C.1     1  UNL1        0.1035
@<TRIPOS>BOND
     1    35    36    3
     2    36     1    1
     3     1     2   ar
     4     2     3   ar
     5     3     4   ar
     6     4     5   ar
     7     5     6   ar
     8     6     7    1
     9     7     8    1
    10     8     9   ar
    11     9    10   ar
    12    10    11   ar
    13    11    12   ar
    14    12    13   ar
    15    12    14    1
    16    14    15   ar
    17    15    16   ar
    18    16    17   ar
    19    17    18   ar
    20    18    19   ar
    21    19    20    1
    22    20    21    1
    23    21    22    1
    24    22    23    1
    25    23    24    1
    26    24    25    1
    27    25    26    1
    28    26    27   ar
    29    27    28   ar
    30    28    29   ar
    31    29    30   ar
    32    30    31    1
    33    23    32    1
    34    32    33    2
    35     6     1   ar
    36    13     8   ar
    37    19    14   ar
    38    32    20   am
    39    31     4    1
    40    30    26   ar
    41    24    34    1
