@<TRIPOS>MOLECULE
*****
 33 37 0 0 0
SMALL
GASTEIGER

@<TRIPOS>ATOM
      1 C          61.3112   88.2923   10.9980 C.3     1  UNL1        0.1096
      2 C          60.3236   88.8781   10.0328 C.3     1  UNL1        0.1622
      3 O          59.7976   88.0466    8.9007 O.3     1  UNL1       -0.3502
      4 C          60.2592   86.6292    8.7336 C.3     1  UNL1        0.1637
      5 C          61.2467   86.0433    9.6987 C.3     1  UNL1        0.1257
      6 N          61.7728   86.8749   10.8309 N.am    1  UNL1       -0.2723
      7 C          62.7604   86.2890   11.7960 C.2     1  UNL1        0.2506
      8 O          63.2864   87.1206   12.9281 O.2     1  UNL1       -0.2699
      9 C          63.2220   84.8716   11.6289 C.ar    1  UNL1        0.0729
     10 C          63.4175   84.3036   10.2545 C.ar    1  UNL1        0.0061
     11 C          63.8790   82.8862   10.0875 C.ar    1  UNL1        0.0002
     12 C          64.1451   82.0368   11.2948 C.ar    1  UNL1        0.0016
     13 C          63.9496   82.6049   12.6692 C.ar    1  UNL1        0.0211
     14 C          63.4881   84.0223   12.8363 C.ar    1  UNL1        0.1072
     15 N          63.2926   84.5903   14.2108 N.ar    1  UNL1       -0.1477
     16 N          64.3474   85.2457   15.0522 N.ar    1  UNL1       -0.1447
     17 C          63.7148   85.6631   16.3466 C.ar    1  UNL1        0.1446
     18 C          62.2689   85.2658   16.3052 C.ar    1  UNL1        0.1446
     19 N          62.0080   84.6027   14.9852 N.ar    1  UNL1       -0.1447
     20 C          61.8372   89.1239   12.1301 C.3     1  UNL1        0.0487
     21 C          66.0473   93.2731   11.1012 C.3     1  UNL1        0.0311
     22 C          64.9948   92.2358   11.3584 C.ar    1  UNL1       -0.0189
     23 C          64.0236   91.8683   10.2760 C.ar    1  UNL1       -0.0045
     24 C          62.9711   90.8310   10.5332 C.ar    1  UNL1       -0.0045
     25 C          62.8897   90.1612   11.8729 C.ar    1  UNL1       -0.0204
     26 C          63.8609   90.5287   12.9553 C.ar    1  UNL1       -0.0015
     27 C          64.9135   91.5660   12.6981 C.ar    1  UNL1        0.0315
     28 C          65.8847   91.9335   13.7806 C.ar    1  UNL1        0.1619
     29 N          67.3602   91.8632   13.5199 N.ar    1  UNL1       -0.2250
     30 C          68.3314   92.2307   14.6023 C.ar    1  UNL1        0.1022
     31 C          67.8271   92.6685   15.9455 C.ar    1  UNL1        0.0414
     32 C          66.3516   92.7388   16.2062 C.ar    1  UNL1        0.1022
     33 N          65.3804   92.3713   15.1237 N.ar    1  UNL1       -0.2250
@<TRIPOS>BOND
     1    21    22    1
     2    22    23   ar
     3    23    24   ar
     4    24    25   ar
     5    25    20    1
     6     1    20    1
     7     1     2    1
     8     2     3    1
     9     3     4    1
    10     4     5    1
    11     5     6    1
    12     6     7   am
    13     7     8    2
    14     7     9    1
    15     9    10   ar
    16    10    11   ar
    17    11    12   ar
    18    12    13   ar
    19    13    14   ar
    20    14    15    1
    21    15    16   ar
    22    16    17   ar
    23    17    18   ar
    24    18    19   ar
    25    25    26   ar
    26    26    27   ar
    27    27    28    1
    28    28    29   ar
    29    29    30   ar
    30    30    31   ar
    31    31    32   ar
    32    32    33   ar
    33    27    22   ar
    34    33    28   ar
    35     6     1    1
    36    14     9   ar
    37    19    15   ar
@<TRIPOS>MOLECULE
*****
 33 37 0 0 0
SMALL
GASTEIGER

@<TRIPOS>ATOM
      1 C          61.8890   89.5643   11.8268 C.3     1  UNL1        0.1096
      2 C          61.1347   90.6306   11.0890 C.3     1  UNL1        0.1622
      3 O          60.5732   90.3465    9.7274 O.3     1  UNL1       -0.3502
      4 C          60.7660   88.9961    9.1035 C.3     1  UNL1        0.1637
      5 C          61.5202   87.9298    9.8411 C.3     1  UNL1        0.1257
      6 N          62.0817   88.2139   11.2028 N.am    1  UNL1       -0.2723
      7 C          62.8360   87.1477   11.9405 C.2     1  UNL1        0.2506
      8 O          63.3974   87.4318   13.3020 O.2     1  UNL1       -0.2699
      9 C          63.0287   85.7973   11.3165 C.ar    1  UNL1        0.0729
     10 C          63.0266   85.6538    9.8234 C.ar    1  UNL1        0.0061
     11 C          63.2194   84.3034    9.1995 C.ar    1  UNL1        0.0002
     12 C          63.4142   83.0965   10.0686 C.ar    1  UNL1        0.0016
     13 C          63.4163   83.2400   11.5617 C.ar    1  UNL1        0.0211
     14 C          63.2236   84.5904   12.1857 C.ar    1  UNL1        0.1072
     15 N          63.2257   84.7339   13.6788 N.ar    1  UNL1       -0.1477
     16 N          64.4242   85.0154   14.5358 N.ar    1  UNL1       -0.1447
     17 C          63.9689   85.0765   15.9638 C.ar    1  UNL1        0.1446
     18 C          62.4890   84.8328   15.9893 C.ar    1  UNL1        0.1446
     19 N          62.0297   84.6211   14.5771 N.ar    1  UNL1       -0.1447
     20 C          62.4505   89.8484   13.1883 C.3     1  UNL1        0.0487
     21 C          67.8014   92.5078   13.7318 C.3     1  UNL1        0.0311
     22 C          66.4636   91.8430   13.5960 C.ar    1  UNL1       -0.0189
     23 C          65.9435   90.9716   14.7006 C.ar    1  UNL1       -0.0045
     24 C          64.6058   90.3068   14.5647 C.ar    1  UNL1       -0.0045
     25 C          63.7882   90.5133   13.3242 C.ar    1  UNL1       -0.0204
     26 C          64.3083   91.3846   12.2196 C.ar    1  UNL1       -0.0015
     27 C          65.6460   92.0495   12.3555 C.ar    1  UNL1        0.0315
     28 C          66.1661   92.9209   11.2508 C.ar    1  UNL1        0.1619
     29 N          65.6462   94.3187   11.0902 N.ar    1  UNL1       -0.2250
     30 C          66.1662   95.1901    9.9856 C.ar    1  UNL1        0.1022
     31 C          67.2063   94.6636    9.0415 C.ar    1  UNL1        0.0414
     32 C          67.7262   93.2658    9.2021 C.ar    1  UNL1        0.1022
     33 N          67.2061   92.3944   10.3068 N.ar    1  UNL1       -0.2250
@<TRIPOS>BOND
     1    21    22    1
     2    22    23   ar
     3    23    24   ar
     4    24    25   ar
     5    25    20    1
     6     1    20    1
     7     1     2    1
     8     2     3    1
     9     3     4    1
    10     4     5    1
    11     5     6    1
    12     6     7   am
    13     7     8    2
    14     7     9    1
    15     9    10   ar
    16    10    11   ar
    17    11    12   ar
    18    12    13   ar
    19    13    14   ar
    20    14    15    1
    21    15    16   ar
    22    16    17   ar
    23    17    18   ar
    24    18    19   ar
    25    25    26   ar
    26    26    27   ar
    27    27    28    1
    28    28    29   ar
    29    29    30   ar
    30    30    31   ar
    31    31    32   ar
    32    32    33   ar
    33    27    22   ar
    34    33    28   ar
    35     6     1    1
    36    14     9   ar
    37    19    15   ar
@<TRIPOS>MOLECULE
*****
 33 37 0 0 0
SMALL
GASTEIGER

@<TRIPOS>ATOM
      1 C          63.2423   88.6559   15.4423 C.3     1  UNL1        0.1096
      2 C          63.0970   88.9976   16.8957 C.3     1  UNL1        0.1622
      3 O          63.0691   87.9056   17.9237 O.3     1  UNL1       -0.3502
      4 C          63.1866   86.4720   17.4984 C.3     1  UNL1        0.1637
      5 C          63.3319   86.1303   16.0451 C.3     1  UNL1        0.1257
      6 N          63.3598   87.2223   15.0170 N.am    1  UNL1       -0.2723
      7 C          63.5051   86.8806   13.5637 C.2     1  UNL1        0.2506
      8 O          63.5330   87.9726   12.5357 O.2     1  UNL1       -0.2699
      9 C          63.6226   85.4470   13.1384 C.ar    1  UNL1        0.0729
     10 C          64.4377   84.4873   13.9535 C.ar    1  UNL1        0.0061
     11 C          64.5552   83.0536   13.5282 C.ar    1  UNL1        0.0002
     12 C          63.8575   82.5797   12.2878 C.ar    1  UNL1        0.0016
     13 C          63.0424   83.5395   11.4727 C.ar    1  UNL1        0.0211
     14 C          62.9249   84.9731   11.8980 C.ar    1  UNL1        0.1072
     15 N          62.1097   85.9329   11.0829 N.ar    1  UNL1       -0.1477
     16 N          62.3506   86.2965    9.6477 N.ar    1  UNL1       -0.1447
     17 C          61.3003   87.2858    9.2376 C.ar    1  UNL1        0.1446
     18 C          60.4104   87.5336   10.4194 C.ar    1  UNL1        0.1446
     19 N          60.9106   86.6975   11.5598 N.ar    1  UNL1       -0.1447
     20 C          63.2702   89.7479   14.4143 C.3     1  UNL1        0.0487
     21 C          67.5345   93.9633   14.6302 C.3     1  UNL1        0.0311
     22 C          66.4684   92.9094   14.5763 C.ar    1  UNL1       -0.0189
     23 C          65.8505   92.4020   15.8454 C.ar    1  UNL1       -0.0045
     24 C          64.7845   91.3481   15.7914 C.ar    1  UNL1       -0.0045
     25 C          64.3363   90.8018   14.4683 C.ar    1  UNL1       -0.0204
     26 C          64.9542   91.3092   13.1992 C.ar    1  UNL1       -0.0015
     27 C          66.0202   92.3631   13.2532 C.ar    1  UNL1        0.0315
     28 C          66.6381   92.8705   11.9840 C.ar    1  UNL1        0.1619
     29 N          66.1453   94.1462   11.3677 N.ar    1  UNL1       -0.2250
     30 C          66.7631   94.6537   10.0986 C.ar    1  UNL1        0.1022
     31 C          67.8738   93.8855    9.4457 C.ar    1  UNL1        0.0414
     32 C          68.3667   92.6098   10.0620 C.ar    1  UNL1        0.1022
     33 N          67.7488   92.1024   11.3312 N.ar    1  UNL1       -0.2250
@<TRIPOS>BOND
     1    21    22    1
     2    22    23   ar
     3    23    24   ar
     4    24    25   ar
     5    25    20    1
     6     1    20    1
     7     1     2    1
     8     2     3    1
     9     3     4    1
    10     4     5    1
    11     5     6    1
    12     6     7   am
    13     7     8    2
    14     7     9    1
    15     9    10   ar
    16    10    11   ar
    17    11    12   ar
    18    12    13   ar
    19    13    14   ar
    20    14    15    1
    21    15    16   ar
    22    16    17   ar
    23    17    18   ar
    24    18    19   ar
    25    25    26   ar
    26    26    27   ar
    27    27    28    1
    28    28    29   ar
    29    29    30   ar
    30    30    31   ar
    31    31    32   ar
    32    32    33   ar
    33    27    22   ar
    34    33    28   ar
    35     6     1    1
    36    14     9   ar
    37    19    15   ar
