@<TRIPOS>MOLECULE
*****
 40 45 0 0 0
SMALL
GASTEIGER

@<TRIPOS>ATOM
      1 N          62.3093   85.8780   10.7373 N.am    1  UNL1       -0.1909
      2 C          62.4571   87.1376   11.5384 C.2     1  UNL1        0.3173
      3 O          63.2229   87.2826   12.8199 O.2     1  UNL1       -0.2516
      4 N          61.7047   88.2266   10.8329 N.am    1  UNL1       -0.2544
      5 C          61.0917   87.6402    9.5957 C.3     1  UNL1        0.1341
      6 C          60.5441   86.9174    8.4009 C.3     1  UNL1        0.0446
      7 C          59.7049   87.6533    7.3989 C.3     1  UNL1        0.0745
      8 N          59.4134   89.1120    7.5916 N.3     1  UNL1       -0.2688
      9 C          59.9610   89.8348    8.7864 C.3     1  UNL1        0.0745
     10 C          60.8002   89.0989    9.7884 C.3     1  UNL1        0.0446
     11 C          61.4654   86.1887    9.5366 C.2     1  UNL1        0.2525
     12 O          61.0655   85.2182    8.4651 O.2     1  UNL1       -0.2724
     13 C          63.1809   82.5612   12.7345 C.ar    1  UNL1        0.1400
     14 C          64.0853   81.8710   11.7569 C.ar    1  UNL1        0.0370
     15 C          64.3976   82.5165   10.4394 C.ar    1  UNL1        0.0044
     16 C          63.8056   83.8522   10.0996 C.ar    1  UNL1        0.0156
     17 C          62.9013   84.5423   11.0772 C.ar    1  UNL1        0.0652
     18 C          62.5889   83.8969   12.3947 C.ar    1  UNL1        0.0522
     19 C          61.5556   81.2188   14.2532 C.3     1  UNL1        0.2525
     20 O          62.8686   81.9158   14.0520 O.3     1  UNL1       -0.4714
     21 C          61.5859   89.6519   11.2851 C.3     1  UNL1        0.1243
     22 C          62.8146   90.4215   11.6700 C.ar    1  UNL1        0.0252
     23 C          63.3584   90.3178   13.0641 C.ar    1  UNL1       -0.0004
     24 C          64.5870   91.0874   13.4491 C.ar    1  UNL1       -0.0001
     25 C          65.2719   91.9606   12.4399 C.ar    1  UNL1        0.0023
     26 C          64.7282   92.0642   11.0458 C.ar    1  UNL1        0.0294
     27 C          63.4995   91.2947   10.6608 C.ar    1  UNL1        0.1377
     28 F          62.9558   91.3984    9.2667 F       1  UNL1       -0.2044
     29 C          58.5741   89.8479    6.5894 C.3     1  UNL1        0.0991
     30 C          59.2298   90.6987    5.5425 C.ar    1  UNL1       -0.0060
     31 C          58.4130   91.6769    4.7513 C.ar    1  UNL1       -0.0014
     32 C          59.0688   92.5277    3.7043 C.ar    1  UNL1        0.0173
     33 C          60.5413   92.4004    3.4485 C.ar    1  UNL1        0.0655
     34 C          61.3581   91.4221    4.2397 C.ar    1  UNL1        0.0173
     35 C          60.7024   90.5713    5.2866 C.ar    1  UNL1       -0.0014
     36 N          61.1970   93.2512    2.4016 N.ar    1  UNL1       -0.2864
     37 C          62.5491   93.0177    1.7955 C.ar    1  UNL1        0.1022
     38 C          62.8035   94.1071    0.7963 C.ar    1  UNL1        0.1196
     39 N          61.6085   95.0139    0.7847 N.ar    1  UNL1       -0.2220
     40 C          60.6157   94.4848    1.7769 C.ar    1  UNL1        0.1828
@<TRIPOS>BOND
     1    19    20    1
     2    20    13    1
     3    13    14   ar
     4    14    15   ar
     5    15    16   ar
     6    16    17   ar
     7    17     1    1
     8     1     2   am
     9     2     3    2
    10     2     4   am
    11     4    21    1
    12    21    22    1
    13    22    23   ar
    14    23    24   ar
    15    24    25   ar
    16    25    26   ar
    17    26    27   ar
    18    27    28    1
    19     4     5    1
    20     5     6    1
    21     6     7    1
    22     7     8    1
    23     8    29    1
    24    29    30    1
    25    30    31   ar
    26    31    32   ar
    27    32    33   ar
    28    33    36    1
    29    36    37   ar
    30    37    38   ar
    31    38    39   ar
    32    39    40   ar
    33    33    34   ar
    34    34    35   ar
    35     8     9    1
    36     9    10    1
    37     5    11    1
    38    11    12    2
    39    17    18   ar
    40    18    13   ar
    41    11     1   am
    42    27    22   ar
    43    10     5    1
    44    35    30   ar
    45    40    36   ar
