@<TRIPOS>MOLECULE
*****
 28 31 0 0 0
SMALL
GASTEIGER

@<TRIPOS>ATOM
      1 C          62.3384   89.0255   10.6272 C.ar    1  UNL1        0.0054
      2 C          62.7208   90.3236    9.9801 C.ar    1  UNL1        0.0003
      3 C          63.5981   91.2961   10.7112 C.ar    1  UNL1        0.0027
      4 C          64.0930   90.9705   12.0892 C.ar    1  UNL1        0.0311
      5 C          64.9704   91.9431   12.8203 C.ar    1  UNL1        0.0523
      6 C          65.4653   91.6176   14.1983 C.ar    1  UNL1        0.0465
      7 C          65.0829   90.3194   14.8454 C.ar    1  UNL1        0.1011
      8 N          64.2055   89.3469   14.1143 N.ar    1  UNL1       -0.2437
      9 C          63.7106   89.6725   12.7363 C.ar    1  UNL1        0.0825
     10 C          62.8333   88.6999   12.0052 C.ar    1  UNL1        0.0193
     11 C          60.0106   89.7877    8.4707 C.3     1  UNL1        0.0556
     12 C          60.3911   88.4032    8.9049 C.ar    1  UNL1        0.1006
     13 N          59.7684   87.1261    8.4242 N.ar    1  UNL1       -0.0817
     14 O          60.4535   85.9863    9.1183 O.2     1  UNL1       -0.3581
     15 C          61.4996   86.5592   10.0280 C.ar    1  UNL1        0.1544
     16 C          62.4223   85.7758   10.9140 C.3     1  UNL1        0.0754
     17 C          61.4610   88.0529    9.8961 C.ar    1  UNL1        0.0497
     18 C          66.3427   92.5901   14.9294 C.2     1  UNL1        0.0756
     19 O          67.4377   93.3087   14.1982 O.co2   1  UNL1       -0.5445
     20 O          66.1250   92.8441   16.3917 O.co2   1  UNL1       -0.5445
     21 N          65.3528   93.2412   12.1732 N.pl3   1  UNL1       -0.3124
     22 H          64.9488   94.0837   12.4834 H       1  UNL1        0.1522
     23 C          66.3509   93.2557   11.0536 C.ar    1  UNL1        0.0483
     24 C          67.3340   92.1319   10.9105 C.ar    1  UNL1        0.0146
     25 C          68.3321   92.1464    9.7909 C.ar    1  UNL1        0.0013
     26 C          68.3471   93.2848    8.8143 C.ar    1  UNL1        0.0001
     27 C          67.3640   94.4087    8.9573 C.ar    1  UNL1        0.0013
     28 C          66.3659   94.3942   10.0769 C.ar    1  UNL1        0.0146
@<TRIPOS>UNITY_ATOM_ATTR
19 1
charge -1
@<TRIPOS>BOND
     1    11    12    1
     2    12    13   ar
     3    13    14   ar
     4    14    15   ar
     5    15    16    1
     6    15    17   ar
     7    17     1    1
     8     1     2   ar
     9     2     3   ar
    10     3     4   ar
    11     4     5   ar
    12     5    21    1
    13    21    23    1
    14    23    24   ar
    15    24    25   ar
    16    25    26   ar
    17    26    27   ar
    18    27    28   ar
    19     5     6   ar
    20     6    18    1
    21    18    19   ar
    22    18    20   ar
    23     6     7   ar
    24     7     8   ar
    25     8     9   ar
    26     9    10   ar
    27    17    12   ar
    28    10     1   ar
    29     9     4   ar
    30    28    23   ar
    31    21    22    1
@<TRIPOS>MOLECULE
*****
 28 31 0 0 0
SMALL
GASTEIGER

@<TRIPOS>ATOM
      1 C          62.3384   89.0806   10.5929 C.ar    1  UNL1        0.0054
      2 C          62.7360   90.3809    9.9596 C.ar    1  UNL1        0.0003
      3 C          63.6152   91.3404   10.7054 C.ar    1  UNL1        0.0027
      4 C          64.0968   90.9996   12.0845 C.ar    1  UNL1        0.0311
      5 C          64.9761   91.9592   12.8303 C.ar    1  UNL1        0.0523
      6 C          65.4577   91.6184   14.2094 C.ar    1  UNL1        0.0465
      7 C          65.0600   90.3181   14.8427 C.ar    1  UNL1        0.1011
      8 N          64.1808   89.3586   14.0969 N.ar    1  UNL1       -0.2437
      9 C          63.6992   89.6993   12.7178 C.ar    1  UNL1        0.0825
     10 C          62.8200   88.7399   11.9720 C.ar    1  UNL1        0.0193
     11 C          62.4500   85.8252   10.7916 C.3     1  UNL1        0.0556
     12 C          61.5104   86.6247    9.9384 C.ar    1  UNL1        0.1006
     13 N          60.4572   86.0683    9.0268 N.ar    1  UNL1       -0.0817
     14 O          59.7549   87.2208    8.3720 O.2     1  UNL1       -0.3581
     15 C          60.3741   88.4894    8.8790 C.ar    1  UNL1        0.1544
     16 C          59.9779   89.8819    8.4868 C.3     1  UNL1        0.0754
     17 C          61.4591   88.1211    9.8471 C.ar    1  UNL1        0.0497
     18 C          66.3369   92.5779   14.9552 C.2     1  UNL1        0.0756
     19 O          66.1062   92.8260   16.4165 O.co2   1  UNL1       -0.5445
     20 O          67.4470   93.2894   14.2398 O.co2   1  UNL1       -0.5445
     21 N          65.3737   93.2595   12.1970 N.pl3   1  UNL1       -0.3124
     22 H          64.9838   94.1039   12.5200 H       1  UNL1        0.1522
     23 C          66.3654   93.2734   11.0717 C.ar    1  UNL1        0.0483
     24 C          66.3741   94.4107   10.0937 C.ar    1  UNL1        0.0146
     25 C          67.3658   94.4245    8.9684 C.ar    1  UNL1        0.0013
     26 C          68.3487   93.3011    8.8209 C.ar    1  UNL1        0.0001
     27 C          68.3399   92.1637    9.7989 C.ar    1  UNL1        0.0013
     28 C          67.3483   92.1498   10.9243 C.ar    1  UNL1        0.0146
@<TRIPOS>UNITY_ATOM_ATTR
19 1
charge -1
@<TRIPOS>BOND
     1    11    12    1
     2    12    13   ar
     3    13    14   ar
     4    14    15   ar
     5    15    16    1
     6    15    17   ar
     7    17     1    1
     8     1     2   ar
     9     2     3   ar
    10     3     4   ar
    11     4     5   ar
    12     5    21    1
    13    21    23    1
    14    23    24   ar
    15    24    25   ar
    16    25    26   ar
    17    26    27   ar
    18    27    28   ar
    19     5     6   ar
    20     6    18    1
    21    18    19   ar
    22    18    20   ar
    23     6     7   ar
    24     7     8   ar
    25     8     9   ar
    26     9    10   ar
    27    17    12   ar
    28    10     1   ar
    29     9     4   ar
    30    28    23   ar
    31    21    22    1
@<TRIPOS>MOLECULE
*****
 28 31 0 0 0
SMALL
GASTEIGER

@<TRIPOS>ATOM
      1 C          65.0633   90.9284   13.7014 C.ar    1  UNL1        0.0054
      2 C          64.6369   89.5644   14.1571 C.ar    1  UNL1        0.0003
      3 C          63.6233   88.7922   13.3658 C.ar    1  UNL1        0.0027
      4 C          63.0359   89.3840   12.1189 C.ar    1  UNL1        0.0311
      5 C          62.0222   88.6117   11.3277 C.ar    1  UNL1        0.0523
      6 C          61.4348   89.2034   10.0807 C.ar    1  UNL1        0.0465
      7 C          61.8612   90.5675    9.6251 C.ar    1  UNL1        0.1011
      8 N          62.8749   91.3397   10.4163 N.ar    1  UNL1       -0.2437
      9 C          63.4622   90.7480   11.6632 C.ar    1  UNL1        0.0825
     10 C          64.4759   91.5202   12.4544 C.ar    1  UNL1        0.0193
     11 C          68.1073   91.6277   12.7555 C.3     1  UNL1        0.0556
     12 C          67.4761   92.0221   14.0578 C.ar    1  UNL1        0.1006
     13 N          68.1333   92.8072   15.1540 N.ar    1  UNL1       -0.0817
     14 O          67.1404   92.9710   16.2664 O.2     1  UNL1       -0.3581
     15 C          65.8695   92.2872   15.8575 C.ar    1  UNL1        0.1544
     16 C          64.6119   92.2043   16.6709 C.3     1  UNL1        0.0754
     17 C          66.0770   91.7007   14.4926 C.ar    1  UNL1        0.0497
     18 C          60.4211   88.4312    9.2895 C.2     1  UNL1        0.0756
     19 O          60.3548   88.5884    7.7992 O.co2   1  UNL1       -0.5445
     20 O          59.4737   87.5018    9.9886 O.co2   1  UNL1       -0.5445
     21 N          61.5959   87.2477   11.7834 N.pl3   1  UNL1       -0.3124
     22 H          60.8292   87.1497   12.3932 H       1  UNL1        0.1522
     23 C          62.3376   86.0329   11.3099 C.ar    1  UNL1        0.0483
     24 C          62.9033   85.0642   12.3056 C.ar    1  UNL1        0.0146
     25 C          63.6450   83.8494   11.8321 C.ar    1  UNL1        0.0013
     26 C          63.8210   83.6033   10.3630 C.ar    1  UNL1        0.0001
     27 C          63.2552   84.5721    9.3672 C.ar    1  UNL1        0.0013
     28 C          62.5135   85.7869    9.8407 C.ar    1  UNL1        0.0146
@<TRIPOS>UNITY_ATOM_ATTR
19 1
charge -1
@<TRIPOS>BOND
     1    11    12    1
     2    12    13   ar
     3    13    14   ar
     4    14    15   ar
     5    15    16    1
     6    15    17   ar
     7    17     1    1
     8     1     2   ar
     9     2     3   ar
    10     3     4   ar
    11     4     5   ar
    12     5    21    1
    13    21    23    1
    14    23    24   ar
    15    24    25   ar
    16    25    26   ar
    17    26    27   ar
    18    27    28   ar
    19     5     6   ar
    20     6    18    1
    21    18    19   ar
    22    18    20   ar
    23     6     7   ar
    24     7     8   ar
    25     8     9   ar
    26     9    10   ar
    27    17    12   ar
    28    10     1   ar
    29     9     4   ar
    30    28    23   ar
    31    21    22    1
@<TRIPOS>MOLECULE
*****
 28 31 0 0 0
SMALL
GASTEIGER

@<TRIPOS>ATOM
      1 C          65.0481   90.9171   13.7231 C.ar    1  UNL1        0.0054
      2 C          64.6242   89.5502   14.1724 C.ar    1  UNL1        0.0003
      3 C          63.6141   88.7787   13.3758 C.ar    1  UNL1        0.0027
      4 C          63.0280   89.3741   12.1301 C.ar    1  UNL1        0.0311
      5 C          62.0178   88.6025   11.3335 C.ar    1  UNL1        0.0523
      6 C          61.4317   89.1979   10.0877 C.ar    1  UNL1        0.0465
      7 C          61.8557   90.5648    9.6385 C.ar    1  UNL1        0.1011
      8 N          62.8657   91.3363   10.4350 N.ar    1  UNL1       -0.2437
      9 C          63.4519   90.7410   11.6808 C.ar    1  UNL1        0.0825
     10 C          64.4620   91.5125   12.4773 C.ar    1  UNL1        0.0193
     11 C          64.5900   92.1726   16.7003 C.3     1  UNL1        0.0556
     12 C          65.8477   92.2657   15.8881 C.ar    1  UNL1        0.1006
     13 N          67.1155   92.9523   16.3017 N.ar    1  UNL1       -0.0817
     14 O          68.1097   92.7996   15.1889 O.2     1  UNL1       -0.3581
     15 C          67.4562   92.0186   14.0875 C.ar    1  UNL1        0.1544
     16 C          68.0896   91.6349   12.7831 C.3     1  UNL1        0.0754
     17 C          66.0582   91.6887   14.5196 C.ar    1  UNL1        0.0497
     18 C          60.4216   88.4264    9.2912 C.2     1  UNL1        0.0756
     19 O          60.3466   88.6024    7.8035 O.co2   1  UNL1       -0.5445
     20 O          59.4865   87.4788    9.9824 O.co2   1  UNL1       -0.5445
     21 N          61.5939   87.2356   11.7828 N.pl3   1  UNL1       -0.3124
     22 H          60.8218   87.1328   12.3848 H       1  UNL1        0.1522
     23 C          62.3464   86.0254   11.3147 C.ar    1  UNL1        0.0483
     24 C          62.5314   85.7785    9.8468 C.ar    1  UNL1        0.0146
     25 C          63.2839   84.5683    9.3788 C.ar    1  UNL1        0.0013
     26 C          63.8513   83.6049   10.3786 C.ar    1  UNL1        0.0001
     27 C          63.6663   83.8516   11.8466 C.ar    1  UNL1        0.0013
     28 C          62.9138   85.0619   12.3147 C.ar    1  UNL1        0.0146
@<TRIPOS>UNITY_ATOM_ATTR
19 1
charge -1
@<TRIPOS>BOND
     1    11    12    1
     2    12    13   ar
     3    13    14   ar
     4    14    15   ar
     5    15    16    1
     6    15    17   ar
     7    17     1    1
     8     1     2   ar
     9     2     3   ar
    10     3     4   ar
    11     4     5   ar
    12     5    21    1
    13    21    23    1
    14    23    24   ar
    15    24    25   ar
    16    25    26   ar
    17    26    27   ar
    18    27    28   ar
    19     5     6   ar
    20     6    18    1
    21    18    19   ar
    22    18    20   ar
    23     6     7   ar
    24     7     8   ar
    25     8     9   ar
    26     9    10   ar
    27    17    12   ar
    28    10     1   ar
    29     9     4   ar
    30    28    23   ar
    31    21    22    1
@<TRIPOS>MOLECULE
*****
 28 31 0 0 0
SMALL
GASTEIGER

@<TRIPOS>ATOM
      1 C          64.0681   90.4802   12.9482 C.ar    1  UNL1        0.0054
      2 C          63.8964   89.0884   13.4804 C.ar    1  UNL1        0.0003
      3 C          63.0335   88.1058   12.7457 C.ar    1  UNL1        0.0027
      4 C          62.3423   88.5149   11.4789 C.ar    1  UNL1        0.0311
      5 C          61.4794   87.5322   10.7442 C.ar    1  UNL1        0.0523
      6 C          60.7883   87.9414    9.4774 C.ar    1  UNL1        0.0465
      7 C          60.9601   89.3333    8.9452 C.ar    1  UNL1        0.1011
      8 N          61.8230   90.3159    9.6799 N.ar    1  UNL1       -0.2437
      9 C          62.5141   89.9068   10.9467 C.ar    1  UNL1        0.0825
     10 C          63.3770   90.8894   11.6814 C.ar    1  UNL1        0.0193
     11 C          66.3654   92.3819   11.6229 C.3     1  UNL1        0.0556
     12 C          65.9870   92.3370   13.0737 C.ar    1  UNL1        0.1006
     13 N          66.5980   93.1584   14.1700 N.ar    1  UNL1       -0.0817
     14 O          65.9198   92.7919   15.4568 O.2     1  UNL1       -0.3581
     15 C          64.8896   91.7441   15.1557 C.ar    1  UNL1        0.1544
     16 C          63.9779   91.0920   16.1525 C.3     1  UNL1        0.0754
     17 C          64.9311   91.4630   13.6829 C.ar    1  UNL1        0.0497
     18 C          59.9254   86.9587    8.7427 C.2     1  UNL1        0.0756
     19 O          60.5340   85.7225    8.1501 O.co2   1  UNL1       -0.5445
     20 O          58.4538   87.2123    8.6007 O.co2   1  UNL1       -0.5445
     21 N          61.3077   86.1404   11.2764 N.pl3   1  UNL1       -0.3124
     22 H          60.4769   85.8903   11.7417 H       1  UNL1        0.1522
     23 C          62.4017   85.1295   11.0997 C.ar    1  UNL1        0.0483
     24 C          62.9193   84.8168    9.7270 C.ar    1  UNL1        0.0146
     25 C          64.0133   83.8059    9.5502 C.ar    1  UNL1        0.0013
     26 C          64.5897   83.1077   10.7462 C.ar    1  UNL1        0.0001
     27 C          64.0721   83.4204   12.1189 C.ar    1  UNL1        0.0013
     28 C          62.9781   84.4313   12.2957 C.ar    1  UNL1        0.0146
@<TRIPOS>UNITY_ATOM_ATTR
19 1
charge -1
@<TRIPOS>BOND
     1    11    12    1
     2    12    13   ar
     3    13    14   ar
     4    14    15   ar
     5    15    16    1
     6    15    17   ar
     7    17     1    1
     8     1     2   ar
     9     2     3   ar
    10     3     4   ar
    11     4     5   ar
    12     5    21    1
    13    21    23    1
    14    23    24   ar
    15    24    25   ar
    16    25    26   ar
    17    26    27   ar
    18    27    28   ar
    19     5     6   ar
    20     6    18    1
    21    18    19   ar
    22    18    20   ar
    23     6     7   ar
    24     7     8   ar
    25     8     9   ar
    26     9    10   ar
    27    17    12   ar
    28    10     1   ar
    29     9     4   ar
    30    28    23   ar
    31    21    22    1
@<TRIPOS>MOLECULE
*****
 28 31 0 0 0
SMALL
GASTEIGER

@<TRIPOS>ATOM
      1 C          62.4780   90.1305   11.2631 C.ar    1  UNL1        0.0054
      2 C          63.4157   90.7773   10.2872 C.ar    1  UNL1        0.0003
      3 C          64.6402   91.4883   10.7823 C.ar    1  UNL1        0.0027
      4 C          64.9269   91.5525   12.2532 C.ar    1  UNL1        0.0311
      5 C          66.1514   92.2636   12.7483 C.ar    1  UNL1        0.0523
      6 C          66.4381   92.3278   14.2193 C.ar    1  UNL1        0.0465
      7 C          65.5003   91.6810   15.1951 C.ar    1  UNL1        0.1011
      8 N          64.2759   90.9700   14.7000 N.ar    1  UNL1       -0.2437
      9 C          63.9892   90.9058   13.2291 C.ar    1  UNL1        0.0825
     10 C          62.7647   90.1947   12.7340 C.ar    1  UNL1        0.0193
     11 C          62.4244   87.2734    9.6870 C.3     1  UNL1        0.0556
     12 C          61.2289   88.1062   10.0436 C.ar    1  UNL1        0.1006
     13 N          59.7988   87.7720    9.7383 N.ar    1  UNL1       -0.0817
     14 O          58.9396   88.8787   10.2741 O.2     1  UNL1       -0.3581
     15 C          59.8386   89.8968   10.9105 C.ar    1  UNL1        0.1544
     16 C          59.3999   91.1690   11.5730 C.3     1  UNL1        0.0754
     17 C          61.2535   89.4194   10.7680 C.ar    1  UNL1        0.0497
     18 C          67.6626   93.0389   14.7143 C.2     1  UNL1        0.0756
     19 O          69.0078   92.7028   14.1422 O.co2   1  UNL1       -0.5445
     20 O          67.5418   94.0860   15.7816 O.co2   1  UNL1       -0.5445
     21 N          67.0891   92.9104   11.7725 N.pl3   1  UNL1       -0.3124
     22 H          67.9429   92.4748   11.5476 H       1  UNL1        0.1522
     23 C          66.7260   94.2207   11.1392 C.ar    1  UNL1        0.0483
     24 C          67.0083   94.4546    9.6847 C.ar    1  UNL1        0.0146
     25 C          66.6452   95.7649    9.0514 C.ar    1  UNL1        0.0013
     26 C          65.9997   96.8415    9.8726 C.ar    1  UNL1        0.0001
     27 C          65.7174   96.6077   11.3272 C.ar    1  UNL1        0.0013
     28 C          66.0805   95.2973   11.9604 C.ar    1  UNL1        0.0146
@<TRIPOS>UNITY_ATOM_ATTR
19 1
charge -1
@<TRIPOS>BOND
     1    11    12    1
     2    12    13   ar
     3    13    14   ar
     4    14    15   ar
     5    15    16    1
     6    15    17   ar
     7    17     1    1
     8     1     2   ar
     9     2     3   ar
    10     3     4   ar
    11     4     5   ar
    12     5    21    1
    13    21    23    1
    14    23    24   ar
    15    24    25   ar
    16    25    26   ar
    17    26    27   ar
    18    27    28   ar
    19     5     6   ar
    20     6    18    1
    21    18    19   ar
    22    18    20   ar
    23     6     7   ar
    24     7     8   ar
    25     8     9   ar
    26     9    10   ar
    27    17    12   ar
    28    10     1   ar
    29     9     4   ar
    30    28    23   ar
    31    21    22    1
@<TRIPOS>MOLECULE
*****
 28 31 0 0 0
SMALL
GASTEIGER

@<TRIPOS>ATOM
      1 C          63.3960   89.8043   13.0117 C.ar    1  UNL1        0.0054
      2 C          63.8331   88.3719   12.9274 C.ar    1  UNL1        0.0003
      3 C          63.1950   87.4505   11.9306 C.ar    1  UNL1        0.0027
      4 C          62.1198   87.9614   11.0180 C.ar    1  UNL1        0.0311
      5 C          61.4817   87.0399   10.0211 C.ar    1  UNL1        0.0523
      6 C          60.4064   87.5509    9.1085 C.ar    1  UNL1        0.0465
      7 C          59.9693   88.9833    9.1928 C.ar    1  UNL1        0.1011
      8 N          60.6074   89.9048   10.1896 N.ar    1  UNL1       -0.2437
      9 C          61.6827   89.3938   11.1022 C.ar    1  UNL1        0.0825
     10 C          62.3208   90.3153   12.0991 C.ar    1  UNL1        0.0193
     11 C          63.0841   89.6336   16.2556 C.3     1  UNL1        0.0556
     12 C          63.8907   90.6474   15.4996 C.ar    1  UNL1        0.1006
     13 N          64.6956   91.7606   16.1019 N.ar    1  UNL1       -0.0817
     14 O          65.3365   92.5272   14.9830 O.2     1  UNL1       -0.3581
     15 C          64.9276   91.8877   13.6893 C.ar    1  UNL1        0.1544
     16 C          65.3398   92.3319   12.3172 C.3     1  UNL1        0.0754
     17 C          64.0341   90.7259   14.0085 C.ar    1  UNL1        0.0497
     18 C          59.7683   86.6294    8.1117 C.2     1  UNL1        0.0756
     19 O          60.6081   85.6384    7.3616 O.co2   1  UNL1       -0.5445
     20 O          58.2904   86.6990    7.8649 O.co2   1  UNL1       -0.5445
     21 N          61.9188   85.6075    9.9369 N.pl3   1  UNL1       -0.3124
     22 H          61.7964   85.1039    9.0998 H       1  UNL1        0.1522
     23 C          62.5423   84.9424   11.1280 C.ar    1  UNL1        0.0483
     24 C          61.9257   85.1043   12.4857 C.ar    1  UNL1        0.0146
     25 C          62.5492   84.4391   13.6768 C.ar    1  UNL1        0.0013
     26 C          63.7895   83.6121   13.5102 C.ar    1  UNL1        0.0001
     27 C          64.4062   83.4501   12.1524 C.ar    1  UNL1        0.0013
     28 C          63.7826   84.1153   10.9613 C.ar    1  UNL1        0.0146
@<TRIPOS>UNITY_ATOM_ATTR
19 1
charge -1
@<TRIPOS>BOND
     1    11    12    1
     2    12    13   ar
     3    13    14   ar
     4    14    15   ar
     5    15    16    1
     6    15    17   ar
     7    17     1    1
     8     1     2   ar
     9     2     3   ar
    10     3     4   ar
    11     4     5   ar
    12     5    21    1
    13    21    23    1
    14    23    24   ar
    15    24    25   ar
    16    25    26   ar
    17    26    27   ar
    18    27    28   ar
    19     5     6   ar
    20     6    18    1
    21    18    19   ar
    22    18    20   ar
    23     6     7   ar
    24     7     8   ar
    25     8     9   ar
    26     9    10   ar
    27    17    12   ar
    28    10     1   ar
    29     9     4   ar
    30    28    23   ar
    31    21    22    1
@<TRIPOS>MOLECULE
*****
 28 31 0 0 0
SMALL
GASTEIGER

@<TRIPOS>ATOM
      1 C          63.4080   89.7871   13.0493 C.ar    1  UNL1        0.0054
      2 C          63.8468   88.3554   12.9625 C.ar    1  UNL1        0.0003
      3 C          63.2123   87.4359   11.9615 C.ar    1  UNL1        0.0027
      4 C          62.1391   87.9482   11.0473 C.ar    1  UNL1        0.0311
      5 C          61.5046   87.0287   10.0462 C.ar    1  UNL1        0.0523
      6 C          60.4314   87.5410    9.1320 C.ar    1  UNL1        0.0465
      7 C          59.9926   88.9728    9.2189 C.ar    1  UNL1        0.1011
      8 N          60.6270   89.8922   10.2200 N.ar    1  UNL1       -0.2437
      9 C          61.7003   89.3799   11.1341 C.ar    1  UNL1        0.0825
     10 C          62.3347   90.2994   12.1352 C.ar    1  UNL1        0.0193
     11 C          65.3733   92.3017   12.3684 C.3     1  UNL1        0.0556
     12 C          64.9457   91.8624   13.7374 C.ar    1  UNL1        0.1006
     13 N          65.3465   92.5018   15.0337 N.ar    1  UNL1       -0.0817
     14 O          64.6908   91.7412   16.1480 O.2     1  UNL1       -0.3581
     15 C          63.8848   90.6317   15.5402 C.ar    1  UNL1        0.1544
     16 C          63.0652   89.6241   16.2906 C.3     1  UNL1        0.0754
     17 C          64.0424   90.7066   14.0504 C.ar    1  UNL1        0.0497
     18 C          59.7970   86.6216    8.1310 C.2     1  UNL1        0.0756
     19 O          58.3216   86.6984    7.8717 O.co2   1  UNL1       -0.5445
     20 O          60.6379   85.6252    7.3893 O.co2   1  UNL1       -0.5445
     21 N          61.9434   85.5970    9.9594 N.pl3   1  UNL1       -0.3124
     22 H          61.8306   85.0977    9.1184 H       1  UNL1        0.1522
     23 C          62.5541   84.9259   11.1539 C.ar    1  UNL1        0.0483
     24 C          61.9377   85.1023   12.5099 C.ar    1  UNL1        0.0146
     25 C          62.5484   84.4312   13.7044 C.ar    1  UNL1        0.0013
     26 C          63.7754   83.5838   13.5428 C.ar    1  UNL1        0.0001
     27 C          64.3919   83.4074   12.1867 C.ar    1  UNL1        0.0013
     28 C          63.7812   84.0784   10.9922 C.ar    1  UNL1        0.0146
@<TRIPOS>UNITY_ATOM_ATTR
19 1
charge -1
@<TRIPOS>BOND
     1    11    12    1
     2    12    13   ar
     3    13    14   ar
     4    14    15   ar
     5    15    16    1
     6    15    17   ar
     7    17     1    1
     8     1     2   ar
     9     2     3   ar
    10     3     4   ar
    11     4     5   ar
    12     5    21    1
    13    21    23    1
    14    23    24   ar
    15    24    25   ar
    16    25    26   ar
    17    26    27   ar
    18    27    28   ar
    19     5     6   ar
    20     6    18    1
    21    18    19   ar
    22    18    20   ar
    23     6     7   ar
    24     7     8   ar
    25     8     9   ar
    26     9    10   ar
    27    17    12   ar
    28    10     1   ar
    29     9     4   ar
    30    28    23   ar
    31    21    22    1
@<TRIPOS>MOLECULE
*****
 28 31 0 0 0
SMALL
GASTEIGER

@<TRIPOS>ATOM
      1 C          63.1504   84.2219   12.6892 C.ar    1  UNL1        0.0054
      2 C          63.0581   85.2302   11.5825 C.ar    1  UNL1        0.0003
      3 C          63.1964   86.6924   11.8866 C.ar    1  UNL1        0.0027
      4 C          63.4269   87.1465   13.2975 C.ar    1  UNL1        0.0311
      5 C          63.5652   88.6089   13.6017 C.ar    1  UNL1        0.0523
      6 C          63.7958   89.0629   15.0126 C.ar    1  UNL1        0.0465
      7 C          63.8880   88.0546   16.1194 C.ar    1  UNL1        0.1011
      8 N          63.7498   86.5923   15.8152 N.ar    1  UNL1       -0.2437
      9 C          63.5192   86.1383   14.4043 C.ar    1  UNL1        0.0825
     10 C          63.3810   84.6760   14.1001 C.ar    1  UNL1        0.0193
     11 C          61.7372   81.9895   14.6047 C.3     1  UNL1        0.0556
     12 C          62.3626   81.7335   13.2655 C.ar    1  UNL1        0.1006
     13 N          62.4482   80.4064   12.5717 N.ar    1  UNL1       -0.0817
     14 O          63.1506   80.6122   11.2623 O.2     1  UNL1       -0.3581
     15 C          63.4992   82.0666   11.1471 C.ar    1  UNL1        0.1544
     16 C          64.2099   82.7143    9.9959 C.3     1  UNL1        0.0754
     17 C          63.0121   82.7596   12.3851 C.ar    1  UNL1        0.0497
     18 C          63.9340   90.5252   15.3168 C.2     1  UNL1        0.0756
     19 O          64.5802   91.4409   14.3197 O.co2   1  UNL1       -0.5445
     20 O          63.4261   91.0719   16.6180 O.co2   1  UNL1       -0.5445
     21 N          63.4729   89.6171   12.4949 N.pl3   1  UNL1       -0.3124
     22 H          64.2149   90.2448   12.3377 H       1  UNL1        0.1522
     23 C          62.2501   89.6691   11.6277 C.ar    1  UNL1        0.0483
     24 C          60.9162   89.9960   12.2309 C.ar    1  UNL1        0.0146
     25 C          59.6934   90.0479   11.3637 C.ar    1  UNL1        0.0013
     26 C          59.8045   89.7729    9.8933 C.ar    1  UNL1        0.0001
     27 C          61.1384   89.4460    9.2901 C.ar    1  UNL1        0.0013
     28 C          62.3612   89.3940   10.1573 C.ar    1  UNL1        0.0146
@<TRIPOS>UNITY_ATOM_ATTR
19 1
charge -1
@<TRIPOS>BOND
     1    11    12    1
     2    12    13   ar
     3    13    14   ar
     4    14    15   ar
     5    15    16    1
     6    15    17   ar
     7    17     1    1
     8     1     2   ar
     9     2     3   ar
    10     3     4   ar
    11     4     5   ar
    12     5    21    1
    13    21    23    1
    14    23    24   ar
    15    24    25   ar
    16    25    26   ar
    17    26    27   ar
    18    27    28   ar
    19     5     6   ar
    20     6    18    1
    21    18    19   ar
    22    18    20   ar
    23     6     7   ar
    24     7     8   ar
    25     8     9   ar
    26     9    10   ar
    27    17    12   ar
    28    10     1   ar
    29     9     4   ar
    30    28    23   ar
    31    21    22    1
