@<TRIPOS>MOLECULE
*****
 30 33 0 0 0
SMALL
GASTEIGER

@<TRIPOS>ATOM
      1 C          62.3698   84.7266   11.6270 C.3     1  UNL1        0.0061
      2 C          63.4057   84.5332   12.6945 C.3     1  UNL1        0.0373
      3 C          64.3871   83.8481   13.5985 C.3     1  UNL1        0.0075
      4 C          65.1656   84.6459   14.6023 C.3     1  UNL1        0.0219
      5 C          64.9626   86.1288   14.7019 C.3     1  UNL1        0.0950
      6 N          63.9812   86.8138   13.7979 N.am    1  UNL1       -0.2639
      7 C          63.7782   88.2967   13.8975 C.2     1  UNL1        0.3042
      8 O          62.7968   88.9817   12.9934 O.2     1  UNL1       -0.2526
      9 N          64.5567   89.0945   14.9012 N.am    1  UNL1       -0.2847
     10 C          63.2027   86.0161   12.7941 C.3     1  UNL1        0.0989
     11 H          65.2009   88.6449   15.4947 H       1  UNL1        0.1513
     12 C          63.2489   83.1175   12.2241 C.ar    1  UNL1       -0.0212
     13 C          63.6459   82.7431   10.8269 C.ar    1  UNL1       -0.0042
     14 C          63.4891   81.3274   10.3566 C.ar    1  UNL1       -0.0003
     15 C          62.9352   80.2861   11.2834 C.ar    1  UNL1       -0.0000
     16 C          62.5382   80.6605   12.6806 C.ar    1  UNL1       -0.0003
     17 C          62.6950   82.0762   13.1509 C.ar    1  UNL1       -0.0042
     18 C          64.3537   90.5773   15.0008 C.3     1  UNL1        0.1177
     19 C          64.9003   91.4823   13.9366 C.ar    1  UNL1       -0.0025
     20 C          64.3138   91.4564   12.5562 C.ar    1  UNL1       -0.0026
     21 C          64.8604   92.3613   11.4921 C.ar    1  UNL1        0.0012
     22 C          65.9934   93.2920   11.8083 C.ar    1  UNL1        0.0176
     23 C          66.5799   93.3178   13.1887 C.ar    1  UNL1        0.0012
     24 C          66.0332   92.4129   14.2528 C.ar    1  UNL1       -0.0026
     25 C          66.5401   94.1969   10.7442 C.ar    1  UNL1        0.0813
     26 C          67.2614   93.6164    9.5640 C.ar    1  UNL1        0.0191
     27 C          67.8080   94.5213    8.4999 C.ar    1  UNL1        0.0031
     28 C          67.6334   96.0066    8.6159 C.ar    1  UNL1        0.0207
     29 C          66.9120   96.5870    9.7961 C.ar    1  UNL1        0.0988
     30 N          66.3654   95.6821   10.8602 N.ar    1  UNL1       -0.2438
@<TRIPOS>BOND
     1     1     2    1
     2     2    12    1
     3    12    13   ar
     4    13    14   ar
     5    14    15   ar
     6    15    16   ar
     7    16    17   ar
     8     2     3    1
     9     3     4    1
    10     4     5    1
    11     5     6    1
    12     6     7   am
    13     7     8    2
    14     7     9   am
    15     9    18    1
    16    18    19    1
    17    19    20   ar
    18    20    21   ar
    19    21    22   ar
    20    22    25    1
    21    25    26   ar
    22    26    27   ar
    23    27    28   ar
    24    28    29   ar
    25    29    30   ar
    26    22    23   ar
    27    23    24   ar
    28     6    10    1
    29    10     2    1
    30    17    12   ar
    31    24    19   ar
    32    30    25   ar
    33     9    11    1
@<TRIPOS>MOLECULE
*****
 30 33 0 0 0
SMALL
GASTEIGER

@<TRIPOS>ATOM
      1 C          64.7546   92.4577   10.9495 C.3     1  UNL1        0.0061
      2 C          65.6676   92.6958   12.1157 C.3     1  UNL1        0.0373
      3 C          66.7927   93.2577   12.9332 C.3     1  UNL1        0.0075
      4 C          66.9899   92.8045   14.3494 C.3     1  UNL1        0.0219
      5 C          66.0619   91.7892   14.9481 C.3     1  UNL1        0.0950
      6 N          64.9369   91.2273   14.1305 N.am    1  UNL1       -0.2639
      7 C          64.0090   90.2121   14.7292 C.2     1  UNL1        0.3042
      8 O          62.8839   89.6502   13.9116 O.2     1  UNL1       -0.2526
      9 N          64.2062   89.7588   16.1454 N.am    1  UNL1       -0.2847
     10 C          64.7397   91.6806   12.7143 C.3     1  UNL1        0.0989
     11 H          64.9446   90.1276   16.6820 H       1  UNL1        0.1513
     12 C          66.2784   93.6284   11.1120 C.ar    1  UNL1       -0.0212
     13 C          67.1631   93.0883   10.0277 C.ar    1  UNL1       -0.0042
     14 C          67.7739   94.0209    9.0241 C.ar    1  UNL1       -0.0003
     15 C          67.5000   95.4934    9.1048 C.ar    1  UNL1       -0.0000
     16 C          66.6154   96.0335   10.1891 C.ar    1  UNL1       -0.0003
     17 C          66.0046   95.1009   11.1927 C.ar    1  UNL1       -0.0042
     18 C          63.2783   88.7436   16.7440 C.3     1  UNL1        0.1177
     19 C          63.2104   87.3593   16.1701 C.ar    1  UNL1       -0.0025
     20 C          62.2498   86.3577   16.7395 C.ar    1  UNL1       -0.0026
     21 C          62.1819   84.9735   16.1657 C.ar    1  UNL1        0.0012
     22 C          63.0745   84.5908   15.0226 C.ar    1  UNL1        0.0176
     23 C          64.0351   85.5925   14.4532 C.ar    1  UNL1        0.0012
     24 C          64.1029   86.9767   15.0270 C.ar    1  UNL1       -0.0026
     25 C          63.0067   83.2066   14.4487 C.ar    1  UNL1        0.0813
     26 C          61.7807   82.3677   14.6571 C.ar    1  UNL1        0.0191
     27 C          61.7129   80.9835   14.0832 C.ar    1  UNL1        0.0031
     28 C          62.8708   80.4381   13.3011 C.ar    1  UNL1        0.0207
     29 C          64.0967   81.2770   13.0928 C.ar    1  UNL1        0.0988
     30 N          64.1646   82.6612   13.6666 N.ar    1  UNL1       -0.2438
@<TRIPOS>BOND
     1     1     2    1
     2     2    12    1
     3    12    13   ar
     4    13    14   ar
     5    14    15   ar
     6    15    16   ar
     7    16    17   ar
     8     2     3    1
     9     3     4    1
    10     4     5    1
    11     5     6    1
    12     6     7   am
    13     7     8    2
    14     7     9   am
    15     9    18    1
    16    18    19    1
    17    19    20   ar
    18    20    21   ar
    19    21    22   ar
    20    22    25    1
    21    25    26   ar
    22    26    27   ar
    23    27    28   ar
    24    28    29   ar
    25    29    30   ar
    26    22    23   ar
    27    23    24   ar
    28     6    10    1
    29    10     2    1
    30    17    12   ar
    31    24    19   ar
    32    30    25   ar
    33     9    11    1
@<TRIPOS>MOLECULE
*****
 30 33 0 0 0
SMALL
GASTEIGER

@<TRIPOS>ATOM
      1 C          64.0852   82.6788   13.5277 C.3     1  UNL1        0.0061
      2 C          63.2574   83.3399   12.4657 C.3     1  UNL1        0.0373
      3 C          62.3641   83.5014   11.2717 C.3     1  UNL1        0.0075
      4 C          61.9471   84.8719   10.8268 C.3     1  UNL1        0.0219
      5 C          62.4235   86.0809   11.5761 C.3     1  UNL1        0.0950
      6 N          63.3168   85.9194   12.7702 N.am    1  UNL1       -0.2639
      7 C          63.7932   87.1284   13.5195 C.2     1  UNL1        0.3042
      8 O          64.6865   86.9668   14.7136 O.2     1  UNL1       -0.2526
      9 N          63.3762   88.4989   13.0747 N.am    1  UNL1       -0.2847
     10 C          63.7338   84.5489   13.2150 C.3     1  UNL1        0.0989
     11 H          62.7899   88.6049   12.2909 H       1  UNL1        0.1513
     12 C          63.0686   81.9012   12.0853 C.ar    1  UNL1       -0.0212
     13 C          62.6777   80.8951   13.1268 C.ar    1  UNL1       -0.0042
     14 C          62.4889   79.4565   12.7464 C.ar    1  UNL1       -0.0003
     15 C          62.6908   79.0241   11.3243 C.ar    1  UNL1       -0.0000
     16 C          63.0817   80.0302   10.2827 C.ar    1  UNL1       -0.0003
     17 C          63.2705   81.4688   10.6632 C.ar    1  UNL1       -0.0042
     18 C          63.8526   89.7078   13.8240 C.3     1  UNL1        0.1177
     19 C          64.4670   90.8569   13.0808 C.ar    1  UNL1       -0.0025
     20 C          65.5793   91.6456   13.7059 C.ar    1  UNL1       -0.0026
     21 C          66.1936   92.7946   12.9626 C.ar    1  UNL1        0.0012
     22 C          65.6957   93.1550   11.5944 C.ar    1  UNL1        0.0176
     23 C          64.5833   92.3662   10.9693 C.ar    1  UNL1        0.0012
     24 C          63.9690   91.2172   11.7126 C.ar    1  UNL1       -0.0026
     25 C          66.3100   94.3039   10.8512 C.ar    1  UNL1        0.0813
     26 C          66.1134   95.7070   11.3442 C.ar    1  UNL1        0.0191
     27 C          66.7277   96.8559   10.6010 C.ar    1  UNL1        0.0031
     28 C          67.5385   96.6021    9.3648 C.ar    1  UNL1        0.0207
     29 C          67.7350   95.1991    8.8718 C.ar    1  UNL1        0.0988
     30 N          67.1208   94.0501    9.6150 N.ar    1  UNL1       -0.2438
@<TRIPOS>BOND
     1     1     2    1
     2     2    12    1
     3    12    13   ar
     4    13    14   ar
     5    14    15   ar
     6    15    16   ar
     7    16    17   ar
     8     2     3    1
     9     3     4    1
    10     4     5    1
    11     5     6    1
    12     6     7   am
    13     7     8    2
    14     7     9   am
    15     9    18    1
    16    18    19    1
    17    19    20   ar
    18    20    21   ar
    19    21    22   ar
    20    22    25    1
    21    25    26   ar
    22    26    27   ar
    23    27    28   ar
    24    28    29   ar
    25    29    30   ar
    26    22    23   ar
    27    23    24   ar
    28     6    10    1
    29    10     2    1
    30    17    12   ar
    31    24    19   ar
    32    30    25   ar
    33     9    11    1
@<TRIPOS>MOLECULE
*****
 30 33 0 0 0
SMALL
GASTEIGER

@<TRIPOS>ATOM
      1 C          62.0452   85.1040   11.4503 C.3     1  UNL1        0.0061
      2 C          62.4165   86.5490   11.6056 C.3     1  UNL1        0.0373
      3 C          63.0664   87.7868   12.1491 C.3     1  UNL1        0.0075
      4 C          62.7848   89.1194   11.5208 C.3     1  UNL1        0.0219
      5 C          61.8531   89.2143   10.3491 C.3     1  UNL1        0.0950
      6 N          61.2031   87.9766    9.8056 N.am    1  UNL1       -0.2639
      7 C          60.2714   88.0715    8.6338 C.2     1  UNL1        0.3042
      8 O          59.6215   86.8336    8.0903 O.2     1  UNL1       -0.2526
      9 N          59.9898   89.4041    8.0055 N.am    1  UNL1       -0.2847
     10 C          61.4848   86.6439   10.4338 C.3     1  UNL1        0.0989
     11 H          60.4164   90.2165    8.3623 H       1  UNL1        0.1513
     12 C          63.2192   85.9523   12.7234 C.ar    1  UNL1       -0.0212
     13 C          63.4368   84.4693   12.7819 C.ar    1  UNL1       -0.0042
     14 C          64.2395   83.8726   13.8997 C.ar    1  UNL1       -0.0003
     15 C          64.8247   84.7589   14.9590 C.ar    1  UNL1       -0.0000
     16 C          64.6070   86.2418   14.9006 C.ar    1  UNL1       -0.0003
     17 C          63.8043   86.8385   13.7828 C.ar    1  UNL1       -0.0042
     18 C          59.0581   89.4989    6.8338 C.3     1  UNL1        0.1177
     19 C          59.3441   90.4677    5.7248 C.ar    1  UNL1       -0.0025
     20 C          58.2314   91.2834    5.1360 C.ar    1  UNL1       -0.0026
     21 C          58.5173   92.2521    4.0271 C.ar    1  UNL1        0.0012
     22 C          59.9159   92.4052    3.5069 C.ar    1  UNL1        0.0176
     23 C          61.0285   91.5895    4.0957 C.ar    1  UNL1        0.0012
     24 C          60.7426   90.6208    5.2047 C.ar    1  UNL1       -0.0026
     25 C          60.2018   93.3739    2.3979 C.ar    1  UNL1        0.0813
     26 C          60.7606   92.8801    1.0964 C.ar    1  UNL1        0.0191
     27 C          61.0466   93.8489   -0.0126 C.ar    1  UNL1        0.0031
     28 C          60.7739   95.3112    0.1799 C.ar    1  UNL1        0.0207
     29 C          60.2152   95.8050    1.4815 C.ar    1  UNL1        0.0988
     30 N          59.9292   94.8363    2.5905 N.ar    1  UNL1       -0.2438
@<TRIPOS>BOND
     1     1     2    1
     2     2    12    1
     3    12    13   ar
     4    13    14   ar
     5    14    15   ar
     6    15    16   ar
     7    16    17   ar
     8     2     3    1
     9     3     4    1
    10     4     5    1
    11     5     6    1
    12     6     7   am
    13     7     8    2
    14     7     9   am
    15     9    18    1
    16    18    19    1
    17    19    20   ar
    18    20    21   ar
    19    21    22   ar
    20    22    25    1
    21    25    26   ar
    22    26    27   ar
    23    27    28   ar
    24    28    29   ar
    25    29    30   ar
    26    22    23   ar
    27    23    24   ar
    28     6    10    1
    29    10     2    1
    30    17    12   ar
    31    24    19   ar
    32    30    25   ar
    33     9    11    1
@<TRIPOS>MOLECULE
*****
 30 33 0 0 0
SMALL
GASTEIGER

@<TRIPOS>ATOM
      1 C          61.9213   85.6785   12.0997 C.3     1  UNL1        0.0061
      2 C          62.3069   85.2730   10.7080 C.3     1  UNL1        0.0373
      3 C          62.9709   84.5235    9.5912 C.3     1  UNL1        0.0075
      4 C          62.6994   84.9053    8.1662 C.3     1  UNL1        0.0219
      5 C          61.7639   86.0366    7.8581 C.3     1  UNL1        0.0950
      6 N          61.0998   86.7861    8.9749 N.am    1  UNL1       -0.2639
      7 C          60.1642   87.9174    8.6667 C.2     1  UNL1        0.3042
      8 O          59.5003   88.6668    9.7836 O.2     1  UNL1       -0.2526
      9 N          59.8928   88.2991    7.2418 N.am    1  UNL1       -0.2847
     10 C          61.3713   86.4043   10.3998 C.3     1  UNL1        0.0989
     11 H          60.3286   87.8072    6.5087 H       1  UNL1        0.1513
     12 C          63.1086   84.2825   11.4995 C.ar    1  UNL1       -0.0212
     13 C          63.5435   82.9937   10.8675 C.ar    1  UNL1       -0.0042
     14 C          64.3451   82.0033   11.6590 C.ar    1  UNL1       -0.0003
     15 C          64.7117   82.3018   13.0825 C.ar    1  UNL1       -0.0000
     16 C          64.2768   83.5907   13.7146 C.ar    1  UNL1       -0.0003
     17 C          63.4752   84.5811   12.9230 C.ar    1  UNL1       -0.0042
     18 C          58.9572   89.4304    6.9337 C.3     1  UNL1        0.1177
     19 C          59.2848   90.3962    5.8336 C.ar    1  UNL1       -0.0025
     20 C          60.7010   90.5427    5.3613 C.ar    1  UNL1       -0.0026
     21 C          61.0286   91.5084    4.2613 C.ar    1  UNL1        0.0012
     22 C          59.9401   92.3276    3.6336 C.ar    1  UNL1        0.0176
     23 C          58.5239   92.1811    4.1060 C.ar    1  UNL1        0.0012
     24 C          58.1964   91.2153    5.2060 C.ar    1  UNL1       -0.0026
     25 C          60.2677   93.2934    2.5336 C.ar    1  UNL1        0.0813
     26 C          60.8878   92.7980    1.2607 C.ar    1  UNL1        0.0191
     27 C          61.2153   93.7637    0.1607 C.ar    1  UNL1        0.0031
     28 C          60.9228   95.2247    0.3335 C.ar    1  UNL1        0.0207
     29 C          60.3027   95.7201    1.6063 C.ar    1  UNL1        0.0988
     30 N          59.9752   94.7543    2.7063 N.ar    1  UNL1       -0.2438
@<TRIPOS>BOND
     1     1     2    1
     2     2    12    1
     3    12    13   ar
     4    13    14   ar
     5    14    15   ar
     6    15    16   ar
     7    16    17   ar
     8     2     3    1
     9     3     4    1
    10     4     5    1
    11     5     6    1
    12     6     7   am
    13     7     8    2
    14     7     9   am
    15     9    18    1
    16    18    19    1
    17    19    20   ar
    18    20    21   ar
    19    21    22   ar
    20    22    25    1
    21    25    26   ar
    22    26    27   ar
    23    27    28   ar
    24    28    29   ar
    25    29    30   ar
    26    22    23   ar
    27    23    24   ar
    28     6    10    1
    29    10     2    1
    30    17    12   ar
    31    24    19   ar
    32    30    25   ar
    33     9    11    1
