@<TRIPOS>MOLECULE
*****
 33 36 0 0 0
SMALL
GASTEIGER

@<TRIPOS>ATOM
      1 C          64.5197   85.6389   14.5576 C.2     1  UNL1        0.2015
      2 O          65.9391   85.1968   14.7564 O.2     1  UNL1       -0.2864
      3 C          63.8856   86.5863   15.5325 C.ar    1  UNL1        0.0611
      4 C          63.0386   86.2038   16.7099 C.ar    1  UNL1        0.1037
      5 N          62.6168   87.4636   17.4062 N.ar    1  UNL1       -0.2269
      6 C          63.2031   88.6248   16.6592 C.ar    1  UNL1        0.1407
      7 N          63.1242   90.1057   16.8838 N.ar    1  UNL1       -0.3374
      8 C          63.8294   91.0445   15.9504 C.ar    1  UNL1        0.0732
      9 C          64.6136   90.5022   14.7923 C.ar    1  UNL1        0.0167
     10 C          64.6925   89.0213   14.5677 C.ar    1  UNL1        0.0044
     11 C          63.9872   88.0826   15.5011 C.ar    1  UNL1        0.0386
     12 H          62.6095   90.4616   17.6439 H       1  UNL1        0.1674
     13 C          65.3189   91.4411   13.8589 C.2     1  UNL1        0.0263
     14 C          66.6696   92.0548   14.0799 C.2     1  UNL1        0.1195
     15 N          66.9828   92.9240   12.8982 N.2     1  UNL1       -0.1510
     16 N          65.8256   92.8474   11.9468 N.2     1  UNL1       -0.1695
     17 C          64.7973   91.9309   12.5406 C.3     1  UNL1        0.1772
     18 C          62.4278   85.5922   11.1853 C.ar    1  UNL1        0.0920
     19 C          62.1633   84.1232   11.0362 C.ar    1  UNL1        0.0204
     20 C          62.6842   83.1595   12.0609 C.ar    1  UNL1        0.0312
     21 C          63.4697   83.6647   13.2346 C.ar    1  UNL1        0.1454
     22 F          63.9906   82.7010   14.2593 F       1  UNL1       -0.2040
     23 C          63.7342   85.1337   13.3837 C.ar    1  UNL1        0.0951
     24 C          63.2132   86.0973   12.3591 C.ar    1  UNL1        0.1598
     25 F          63.4778   87.5663   12.5083 F       1  UNL1       -0.2026
     26 N          61.9068   86.5559   10.1607 N.pl3   1  UNL1       -0.2166
     27 H          61.7864   87.5048   10.3937 H       1  UNL1        0.1734
     28 S          61.5694   86.0738    8.7809 S.O2    1  UNL1        0.0540
     29 O          60.1137   86.3116    9.0538 O.2     1  UNL1       -0.1545
     30 O          63.0250   85.8359    8.5081 O.2     1  UNL1       -0.1545
     31 C          61.2321   85.5917    7.4012 C.3     1  UNL1        0.1724
     32 C          61.8086   84.1170    5.3412 C.3     1  UNL1        0.0019
     33 C          62.2117   84.7471    6.6414 C.3     1  UNL1        0.0273
@<TRIPOS>BOND
     1    32    33    1
     2    33    31    1
     3    31    28    1
     4    28    29    2
     5    28    30    2
     6    28    26    1
     7    26    18    1
     8    18    19   ar
     9    19    20   ar
    10    20    21   ar
    11    21    22    1
    12    21    23   ar
    13    23     1    1
    14     1     2    2
    15     1     3    1
    16     3     4   ar
    17     4     5   ar
    18     5     6   ar
    19     6     7   ar
    20     7     8   ar
    21     8     9   ar
    22     9    13    1
    23    13    14    2
    24    14    15    1
    25    15    16    2
    26    16    17    1
    27     9    10   ar
    28    10    11   ar
    29    23    24   ar
    30    24    25    1
    31    24    18   ar
    32    11     3   ar
    33    11     6    1
    34    17    13    1
    35    26    27    1
    36     7    12    1
@<TRIPOS>MOLECULE
*****
 33 36 0 0 0
SMALL
GASTEIGER

@<TRIPOS>ATOM
      1 C          64.6524   85.5921   14.7352 C.2     1  UNL1        0.2015
      2 O          66.1260   85.3531   14.8806 O.2     1  UNL1       -0.2864
      3 C          63.9577   86.5666   15.6394 C.ar    1  UNL1        0.0611
      4 C          63.0602   86.2170   16.7893 C.ar    1  UNL1        0.1037
      5 N          62.5865   87.4962   17.4131 N.ar    1  UNL1       -0.2269
      6 C          63.1911   88.6365   16.6487 C.ar    1  UNL1        0.1407
      7 N          63.0795   90.1236   16.8092 N.ar    1  UNL1       -0.3374
      8 C          63.8154   91.0363   15.8736 C.ar    1  UNL1        0.0732
      9 C          64.6630   90.4617   14.7774 C.ar    1  UNL1        0.0167
     10 C          64.7746   88.9746   14.6169 C.ar    1  UNL1        0.0044
     11 C          64.0387   88.0619   15.5525 C.ar    1  UNL1        0.0386
     12 H          62.5233   90.5007   17.5287 H       1  UNL1        0.1674
     13 C          65.3989   91.3744   13.8417 C.2     1  UNL1        0.0263
     14 C          64.8422   91.9928   12.5936 C.2     1  UNL1        0.1195
     15 N          65.9199   92.8296   11.9704 N.2     1  UNL1       -0.1510
     16 N          67.1427   92.7283   12.8333 N.2     1  UNL1       -0.1695
     17 C          66.8206   91.8290   13.9898 C.3     1  UNL1        0.1772
     18 C          62.5235   84.8658   11.4655 C.ar    1  UNL1        0.0920
     19 C          62.3153   83.3852   11.5859 C.ar    1  UNL1        0.0204
     20 C          62.8862   82.6403   12.7559 C.ar    1  UNL1        0.0312
     21 C          63.6652   83.3758   13.8057 C.ar    1  UNL1        0.1454
     22 F          64.2361   82.6308   14.9758 F       1  UNL1       -0.2040
     23 C          63.8734   84.8564   13.6854 C.ar    1  UNL1        0.0951
     24 C          63.3025   85.6014   12.5153 C.ar    1  UNL1        0.1598
     25 F          63.5107   87.0820   12.3950 F       1  UNL1       -0.2026
     26 N          61.9526   85.6108   10.2955 N.pl3   1  UNL1       -0.2166
     27 H          61.8005   85.1446    9.4418 H       1  UNL1        0.1734
     28 S          61.6134   87.0661   10.4261 S.O2    1  UNL1        0.0540
     29 O          60.6682   86.7453   11.5457 O.2     1  UNL1       -0.1545
     30 O          62.5586   87.3869    9.3064 O.2     1  UNL1       -0.1545
     31 C          61.2743   88.5214   10.5566 C.3     1  UNL1        0.1724
     32 C          62.6290   90.6977   10.1338 C.3     1  UNL1        0.0019
     33 C          62.3260   89.5010   10.9859 C.3     1  UNL1        0.0273
@<TRIPOS>BOND
     1    32    33    1
     2    33    31    1
     3    31    28    1
     4    28    29    2
     5    28    30    2
     6    28    26    1
     7    26    18    1
     8    18    19   ar
     9    19    20   ar
    10    20    21   ar
    11    21    22    1
    12    21    23   ar
    13    23     1    1
    14     1     2    2
    15     1     3    1
    16     3     4   ar
    17     4     5   ar
    18     5     6   ar
    19     6     7   ar
    20     7     8   ar
    21     8     9   ar
    22     9    13    1
    23    13    14    2
    24    14    15    1
    25    15    16    2
    26    16    17    1
    27     9    10   ar
    28    10    11   ar
    29    23    24   ar
    30    24    25    1
    31    24    18   ar
    32    11     3   ar
    33    11     6    1
    34    17    13    1
    35    26    27    1
    36     7    12    1
@<TRIPOS>MOLECULE
*****
 33 36 0 0 0
SMALL
GASTEIGER

@<TRIPOS>ATOM
      1 C          62.4486   89.7864   11.4511 C.2     1  UNL1        0.2015
      2 O          61.9535   90.6888   10.3601 O.2     1  UNL1       -0.2864
      3 C          63.1375   90.3674   12.6502 C.ar    1  UNL1        0.0611
      4 C          62.8265   90.0539   14.0837 C.ar    1  UNL1        0.1037
      5 N          63.7552   90.8566   14.9457 N.ar    1  UNL1       -0.2269
      6 C          64.6402   91.6663   14.0450 C.ar    1  UNL1        0.1407
      7 N          65.7443   92.6398   14.3334 N.ar    1  UNL1       -0.3374
      8 C          66.4666   93.3109   13.2031 C.ar    1  UNL1        0.0732
      9 C          66.0849   93.0086   11.7843 C.ar    1  UNL1        0.0167
     10 C          64.9808   92.0351   11.4959 C.ar    1  UNL1        0.0044
     11 C          64.2584   91.3639   12.6263 C.ar    1  UNL1        0.0386
     12 H          65.9949   92.8382   15.2646 H       1  UNL1        0.1674
     13 C          66.8073   93.6798   10.6539 C.2     1  UNL1        0.0263
     14 C          66.7797   95.1456   10.3367 C.2     1  UNL1        0.1195
     15 N          67.6394   95.3748    9.1291 N.2     1  UNL1       -0.1510
     16 N          68.1983   94.0506    8.7000 N.2     1  UNL1       -0.1695
     17 C          67.6840   93.0030    9.6424 C.3     1  UNL1        0.1772
     18 C          62.8759   85.8925   12.0876 C.ar    1  UNL1        0.0920
     19 C          61.8672   85.3359   11.1269 C.ar    1  UNL1        0.0204
     20 C          61.0524   86.2628   10.2743 C.ar    1  UNL1        0.0312
     21 C          61.2462   87.7463   10.3823 C.ar    1  UNL1        0.1454
     22 F          60.4313   88.6732    9.5298 F       1  UNL1       -0.2040
     23 C          62.2548   88.3029   11.3430 C.ar    1  UNL1        0.0951
     24 C          63.0696   87.3760   12.1956 C.ar    1  UNL1        0.1598
     25 F          64.0782   87.9326   13.1563 F       1  UNL1       -0.2026
     26 N          63.6907   84.9656   12.9402 N.pl3   1  UNL1       -0.2166
     27 H          64.6645   85.0912   13.0121 H       1  UNL1        0.1734
     28 S          63.0218   83.8473   13.6832 S.O2    1  UNL1        0.0540
     29 O          62.2858   84.8470   14.5252 O.2     1  UNL1       -0.1545
     30 O          63.7577   82.8477   12.8412 O.2     1  UNL1       -0.1545
     31 C          62.3529   82.7291   14.4261 C.3     1  UNL1        0.1724
     32 C          60.6656   80.7780   14.1147 C.3     1  UNL1        0.0019
     33 C          61.9109   81.4987   13.6906 C.3     1  UNL1        0.0273
@<TRIPOS>BOND
     1    32    33    1
     2    33    31    1
     3    31    28    1
     4    28    29    2
     5    28    30    2
     6    28    26    1
     7    26    18    1
     8    18    19   ar
     9    19    20   ar
    10    20    21   ar
    11    21    22    1
    12    21    23   ar
    13    23     1    1
    14     1     2    2
    15     1     3    1
    16     3     4   ar
    17     4     5   ar
    18     5     6   ar
    19     6     7   ar
    20     7     8   ar
    21     8     9   ar
    22     9    13    1
    23    13    14    2
    24    14    15    1
    25    15    16    2
    26    16    17    1
    27     9    10   ar
    28    10    11   ar
    29    23    24   ar
    30    24    25    1
    31    24    18   ar
    32    11     3   ar
    33    11     6    1
    34    17    13    1
    35    26    27    1
    36     7    12    1
@<TRIPOS>MOLECULE
*****
 33 36 0 0 0
SMALL
GASTEIGER

@<TRIPOS>ATOM
      1 C          62.7542   90.1507   13.0107 C.2     1  UNL1        0.2015
      2 O          62.3474   89.7680   14.4027 O.2     1  UNL1       -0.2864
      3 C          61.8986   89.7555   11.8438 C.ar    1  UNL1        0.0611
      4 C          60.9316   90.6437   11.1186 C.ar    1  UNL1        0.1037
      5 N          60.2952   89.8397   10.0238 N.ar    1  UNL1       -0.2269
      6 C          60.8689   88.4546   10.0723 C.ar    1  UNL1        0.1407
      7 N          60.6170   87.2341    9.2376 N.ar    1  UNL1       -0.3374
      8 C          61.3561   85.9615    9.5277 C.ar    1  UNL1        0.0732
      9 C          62.3471   85.9094   10.6525 C.ar    1  UNL1        0.0167
     10 C          62.5990   87.1299   11.4872 C.ar    1  UNL1        0.0044
     11 C          61.8599   88.4025   11.1971 C.ar    1  UNL1        0.0386
     12 H          59.9666   87.2682    8.4993 H       1  UNL1        0.1674
     13 C          63.0862   84.6367   10.9426 C.2     1  UNL1        0.0263
     14 C          63.2583   84.0051   12.2922 C.2     1  UNL1        0.1195
     15 N          64.0614   82.7503   12.1178 N.2     1  UNL1       -0.1510
     16 N          64.3856   82.6064   10.6603 N.2     1  UNL1       -0.1695
     17 C          63.7829   83.7723    9.9340 C.3     1  UNL1        0.1772
     18 C          65.4999   92.4179   11.2581 C.ar    1  UNL1        0.0920
     19 C          66.5417   92.4850   12.3352 C.ar    1  UNL1        0.0204
     20 C          66.3210   91.7740   13.6374 C.ar    1  UNL1        0.0312
     21 C          65.0586   90.9959   13.8626 C.ar    1  UNL1        0.1454
     22 F          64.8380   90.2849   15.1648 F       1  UNL1       -0.2040
     23 C          64.0168   90.9289   12.7855 C.ar    1  UNL1        0.0951
     24 C          64.2374   91.6399   11.4833 C.ar    1  UNL1        0.1598
     25 F          63.1955   91.5727   10.4063 F       1  UNL1       -0.2026
     26 N          65.7205   93.1289    9.9559 N.pl3   1  UNL1       -0.2166
     27 H          65.3691   92.7455    9.1200 H       1  UNL1        0.1734
     28 S          66.4766   94.4241    9.9273 S.O2    1  UNL1        0.0540
     29 O          67.6355   93.7332    9.2721 O.2     1  UNL1       -0.1545
     30 O          65.3176   95.1151   10.5825 O.2     1  UNL1       -0.1545
     31 C          67.2325   95.7194    9.8987 C.3     1  UNL1        0.1724
     32 C          66.3921   96.8559    7.7187 C.3     1  UNL1        0.0019
     33 C          67.5219   96.3902    8.5886 C.3     1  UNL1        0.0273
@<TRIPOS>BOND
     1    32    33    1
     2    33    31    1
     3    31    28    1
     4    28    29    2
     5    28    30    2
     6    28    26    1
     7    26    18    1
     8    18    19   ar
     9    19    20   ar
    10    20    21   ar
    11    21    22    1
    12    21    23   ar
    13    23     1    1
    14     1     2    2
    15     1     3    1
    16     3     4   ar
    17     4     5   ar
    18     5     6   ar
    19     6     7   ar
    20     7     8   ar
    21     8     9   ar
    22     9    13    1
    23    13    14    2
    24    14    15    1
    25    15    16    2
    26    16    17    1
    27     9    10   ar
    28    10    11   ar
    29    23    24   ar
    30    24    25    1
    31    24    18   ar
    32    11     3   ar
    33    11     6    1
    34    17    13    1
    35    26    27    1
    36     7    12    1
@<TRIPOS>MOLECULE
*****
 33 36 0 0 0
SMALL
GASTEIGER

@<TRIPOS>ATOM
      1 C          61.4402   89.8354   11.4289 C.2     1  UNL1        0.2015
      2 O          60.1655   90.3355   12.0412 O.2     1  UNL1       -0.2864
      3 C          61.4167   88.6489   10.5114 C.ar    1  UNL1        0.0611
      4 C          60.9282   88.6406    9.0932 C.ar    1  UNL1        0.1037
      5 N          61.0872   87.2490    8.5564 N.ar    1  UNL1       -0.2269
      6 C          61.6738   86.3972    9.6429 C.ar    1  UNL1        0.1407
      7 N          62.0488   84.9456    9.6881 N.ar    1  UNL1       -0.3374
      8 C          62.6274   84.3592   10.9416 C.ar    1  UNL1        0.0732
      9 C          62.8311   85.2244   12.1498 C.ar    1  UNL1        0.0167
     10 C          62.4561   86.6760   12.1047 C.ar    1  UNL1        0.0044
     11 C          61.8774   87.2625   10.8512 C.ar    1  UNL1        0.0386
     12 H          61.9151   84.3777    8.8951 H       1  UNL1        0.1674
     13 C          63.4098   84.6379   13.4034 C.2     1  UNL1        0.0263
     14 C          64.2336   85.3702   14.4207 C.2     1  UNL1        0.1195
     15 N          64.5992   84.4011   15.5057 N.2     1  UNL1       -0.1510
     16 N          64.0013   83.0698   15.1588 N.2     1  UNL1       -0.1695
     17 C          63.2662   83.2162   13.8595 C.3     1  UNL1        0.1772
     18 C          64.6728   91.0448   13.3881 C.ar    1  UNL1        0.0920
     19 C          65.3352   91.8946   12.3445 C.ar    1  UNL1        0.0204
     20 C          64.6994   92.0581   10.9959 C.ar    1  UNL1        0.0312
     21 C          63.4011   91.3717   10.6906 C.ar    1  UNL1        0.1454
     22 F          62.7652   91.5351    9.3419 F       1  UNL1       -0.2040
     23 C          62.7386   90.5219   11.7341 C.ar    1  UNL1        0.0951
     24 C          63.3745   90.3584   13.0828 C.ar    1  UNL1        0.1598
     25 F          62.7119   89.5085   14.1263 F       1  UNL1       -0.2026
     26 N          65.3086   90.8814   14.7367 N.pl3   1  UNL1       -0.2166
     27 H          65.1580   90.0583   15.2555 H       1  UNL1        0.1734
     28 S          66.1740   91.9720   15.2950 S.O2    1  UNL1        0.0540
     29 O          67.3863   91.3086   14.7116 O.2     1  UNL1       -0.1545
     30 O          64.9618   92.6353   15.8784 O.2     1  UNL1       -0.1545
     31 C          67.0394   93.0626   15.8533 C.3     1  UNL1        0.1724
     32 C          69.3853   94.1593   16.0637 C.3     1  UNL1        0.0019
     33 C          68.5319   92.9701   15.7356 C.3     1  UNL1        0.0273
@<TRIPOS>BOND
     1    32    33    1
     2    33    31    1
     3    31    28    1
     4    28    29    2
     5    28    30    2
     6    28    26    1
     7    26    18    1
     8    18    19   ar
     9    19    20   ar
    10    20    21   ar
    11    21    22    1
    12    21    23   ar
    13    23     1    1
    14     1     2    2
    15     1     3    1
    16     3     4   ar
    17     4     5   ar
    18     5     6   ar
    19     6     7   ar
    20     7     8   ar
    21     8     9   ar
    22     9    13    1
    23    13    14    2
    24    14    15    1
    25    15    16    2
    26    16    17    1
    27     9    10   ar
    28    10    11   ar
    29    23    24   ar
    30    24    25    1
    31    24    18   ar
    32    11     3   ar
    33    11     6    1
    34    17    13    1
    35    26    27    1
    36     7    12    1
@<TRIPOS>MOLECULE
*****
 33 36 0 0 0
SMALL
GASTEIGER

@<TRIPOS>ATOM
      1 C          62.6726   85.6423    9.2484 C.2     1  UNL1        0.2015
      2 O          63.5331   85.5331    8.0248 O.2     1  UNL1       -0.2864
      3 C          61.5281   86.6114    9.2765 C.ar    1  UNL1        0.0611
      4 C          60.1401   86.3516    8.7705 C.ar    1  UNL1        0.1037
      5 N          59.3249   87.5902    8.9969 N.ar    1  UNL1       -0.2269
      6 C          60.2089   88.6155    9.6428 C.ar    1  UNL1        0.1407
      7 N          59.9500   90.0217   10.0959 N.ar    1  UNL1       -0.3374
      8 C          61.0527   90.8231   10.7218 C.ar    1  UNL1        0.0732
      9 C          62.4144   90.2181   10.8947 C.ar    1  UNL1        0.0167
     10 C          62.6733   88.8119   10.4416 C.ar    1  UNL1        0.0044
     11 C          61.5706   88.0106    9.8156 C.ar    1  UNL1        0.0386
     12 H          59.0562   90.4188    9.9824 H       1  UNL1        0.1674
     13 C          63.5171   91.0196   11.5207 C.2     1  UNL1        0.0263
     14 C          64.4527   91.9449   10.8006 C.2     1  UNL1        0.1195
     15 N          65.3916   92.5336   11.8114 N.2     1  UNL1       -0.1510
     16 N          65.0363   91.9720   13.1563 N.2     1  UNL1       -0.1695
     17 C          63.8778   91.0363   12.9765 C.3     1  UNL1        0.1772
     18 C          62.6108   84.2449   12.9625 C.ar    1  UNL1        0.0920
     19 C          63.5247   83.0622   12.8356 C.ar    1  UNL1        0.0204
     20 C          64.1545   82.7395   11.5130 C.ar    1  UNL1        0.0312
     21 C          63.8705   83.5995   10.3173 C.ar    1  UNL1        0.1454
     22 F          64.5003   83.2768    8.9947 F       1  UNL1       -0.2040
     23 C          62.9567   84.7822   10.4442 C.ar    1  UNL1        0.0951
     24 C          62.3268   85.1049   11.7668 C.ar    1  UNL1        0.1598
     25 F          61.4130   86.2876   11.8936 F       1  UNL1       -0.2026
     26 N          61.9810   84.5676   14.2850 N.pl3   1  UNL1       -0.2166
     27 H          61.0296   84.3669   14.4392 H       1  UNL1        0.1734
     28 S          62.8008   85.1961   15.3727 S.O2    1  UNL1        0.0540
     29 O          63.4289   86.1157   14.3678 O.2     1  UNL1       -0.1545
     30 O          62.1726   84.2764   16.3775 O.2     1  UNL1       -0.1545
     31 C          63.6205   85.8245   16.4604 C.3     1  UNL1        0.1724
     32 C          63.0135   88.2642   17.1160 C.3     1  UNL1        0.0019
     33 C          62.9858   86.7941   17.4128 C.3     1  UNL1        0.0273
@<TRIPOS>BOND
     1    32    33    1
     2    33    31    1
     3    31    28    1
     4    28    29    2
     5    28    30    2
     6    28    26    1
     7    26    18    1
     8    18    19   ar
     9    19    20   ar
    10    20    21   ar
    11    21    22    1
    12    21    23   ar
    13    23     1    1
    14     1     2    2
    15     1     3    1
    16     3     4   ar
    17     4     5   ar
    18     5     6   ar
    19     6     7   ar
    20     7     8   ar
    21     8     9   ar
    22     9    13    1
    23    13    14    2
    24    14    15    1
    25    15    16    2
    26    16    17    1
    27     9    10   ar
    28    10    11   ar
    29    23    24   ar
    30    24    25    1
    31    24    18   ar
    32    11     3   ar
    33    11     6    1
    34    17    13    1
    35    26    27    1
    36     7    12    1
@<TRIPOS>MOLECULE
*****
 33 36 0 0 0
SMALL
GASTEIGER

@<TRIPOS>ATOM
      1 C          62.0550   89.4131   12.4060 C.2     1  UNL1        0.2015
      2 O          60.7305   89.6967   13.0503 O.2     1  UNL1       -0.2864
      3 C          62.1311   88.5007   11.2179 C.ar    1  UNL1        0.0611
      4 C          61.9106   88.8954    9.7876 C.ar    1  UNL1        0.1037
      5 N          62.0843   87.6720    8.9372 N.ar    1  UNL1       -0.2269
      6 C          62.4122   86.5213    9.8419 C.ar    1  UNL1        0.1407
      7 N          62.6882   85.0733    9.5642 N.ar    1  UNL1       -0.3374
      8 C          62.9930   84.1375   10.6961 C.ar    1  UNL1        0.0732
      9 C          63.0219   84.6497   12.1057 C.ar    1  UNL1        0.0167
     10 C          62.7460   86.0977   12.3833 C.ar    1  UNL1        0.0044
     11 C          62.4411   87.0335   11.2514 C.ar    1  UNL1        0.0386
     12 H          62.6692   84.7372    8.6391 H       1  UNL1        0.1674
     13 C          63.3268   83.7138   13.2376 C.2     1  UNL1        0.0263
     14 C          63.2238   82.2179   13.1969 C.2     1  UNL1        0.1195
     15 N          63.6215   81.6890   14.5431 N.2     1  UNL1       -0.1510
     16 N          63.9703   82.8582   15.4158 N.2     1  UNL1       -0.1695
     17 C          63.7882   84.1095   14.6089 C.3     1  UNL1        0.1772
     18 C          65.1326   91.8831   12.8281 C.ar    1  UNL1        0.0920
     19 C          65.8004   91.2997   14.0378 C.ar    1  UNL1        0.0204
     20 C          65.2198   90.0874   14.7037 C.ar    1  UNL1        0.0312
     21 C          63.9714   89.4585   14.1598 C.ar    1  UNL1        0.1454
     22 F          63.3908   88.2463   14.8256 F       1  UNL1       -0.2040
     23 C          63.3035   90.0420   12.9500 C.ar    1  UNL1        0.0951
     24 C          63.8841   91.2542   12.2842 C.ar    1  UNL1        0.1598
     25 F          63.2162   91.8376   11.0744 F       1  UNL1       -0.2026
     26 N          65.7132   93.0954   12.1622 N.pl3   1  UNL1       -0.2166
     27 H          65.5194   93.9926   12.5180 H       1  UNL1        0.1734
     28 S          66.5889   92.9405   10.9543 S.O2    1  UNL1        0.0540
     29 O          65.4423   93.3366   10.0722 O.2     1  UNL1       -0.1545
     30 O          67.7356   92.5443   11.8365 O.2     1  UNL1       -0.1545
     31 C          67.4647   92.7856    9.7465 C.3     1  UNL1        0.1724
     32 C          67.6044   95.0800    8.5355 C.3     1  UNL1        0.0019
     33 C          68.2758   93.9474    9.2542 C.3     1  UNL1        0.0273
@<TRIPOS>BOND
     1    32    33    1
     2    33    31    1
     3    31    28    1
     4    28    29    2
     5    28    30    2
     6    28    26    1
     7    26    18    1
     8    18    19   ar
     9    19    20   ar
    10    20    21   ar
    11    21    22    1
    12    21    23   ar
    13    23     1    1
    14     1     2    2
    15     1     3    1
    16     3     4   ar
    17     4     5   ar
    18     5     6   ar
    19     6     7   ar
    20     7     8   ar
    21     8     9   ar
    22     9    13    1
    23    13    14    2
    24    14    15    1
    25    15    16    2
    26    16    17    1
    27     9    10   ar
    28    10    11   ar
    29    23    24   ar
    30    24    25    1
    31    24    18   ar
    32    11     3   ar
    33    11     6    1
    34    17    13    1
    35    26    27    1
    36     7    12    1
@<TRIPOS>MOLECULE
*****
 33 36 0 0 0
SMALL
GASTEIGER

@<TRIPOS>ATOM
      1 C          61.0891   90.1222   11.1033 C.2     1  UNL1        0.2015
      2 O          59.8177   90.7259   11.6221 O.2     1  UNL1       -0.2864
      3 C          61.0365   88.9408   10.1805 C.ar    1  UNL1        0.0611
      4 C          60.4729   88.9322    8.7905 C.ar    1  UNL1        0.1037
      5 N          60.6264   87.5466    8.2367 N.ar    1  UNL1       -0.2269
      6 C          61.2849   86.6989    9.2844 C.ar    1  UNL1        0.1407
      7 N          61.6864   85.2538    9.2998 N.ar    1  UNL1       -0.3374
      8 C          62.3414   84.6703   10.5165 C.ar    1  UNL1        0.0732
      9 C          62.5949   85.5319   11.7179 C.ar    1  UNL1        0.0167
     10 C          62.1933   86.9770   11.7025 C.ar    1  UNL1        0.0044
     11 C          61.5383   87.5606   10.4858 C.ar    1  UNL1        0.0386
     12 H          61.5200   84.6883    8.5112 H       1  UNL1        0.1674
     13 C          63.2499   84.9483   12.9346 C.2     1  UNL1        0.0263
     14 C          64.0804   85.6978   13.9339 C.2     1  UNL1        0.1195
     15 N          64.5333   84.7256   14.9826 N.2     1  UNL1       -0.1510
     16 N          63.9826   83.3752   14.6313 N.2     1  UNL1       -0.1695
     17 C          63.1895   83.5129   13.3657 C.3     1  UNL1        0.1772
     18 C          64.1972   91.1745   13.3355 C.ar    1  UNL1        0.0920
     19 C          65.0611   91.8553   12.3156 C.ar    1  UNL1        0.0204
     20 C          64.6010   91.9584   10.8917 C.ar    1  UNL1        0.0312
     21 C          63.2770   91.3807   10.4875 C.ar    1  UNL1        0.1454
     22 F          62.8169   91.4838    9.0636 F       1  UNL1       -0.2040
     23 C          62.4131   90.6999   11.5074 C.ar    1  UNL1        0.0951
     24 C          62.8732   90.5968   12.9314 C.ar    1  UNL1        0.1598
     25 F          62.0092   89.9159   13.9513 F       1  UNL1       -0.2026
     26 N          64.6573   91.0714   14.7595 N.pl3   1  UNL1       -0.2166
     27 H          65.4646   91.5528   15.0520 H       1  UNL1        0.1734
     28 S          63.8872   90.2347   15.7377 S.O2    1  UNL1        0.0540
     29 O          63.3238   91.4786   16.3582 O.2     1  UNL1       -0.1545
     30 O          64.4507   88.9907   15.1173 O.2     1  UNL1       -0.1545
     31 C          63.1173   89.3979   16.7159 C.3     1  UNL1        0.1724
     32 C          62.7034   87.0648   17.7816 C.3     1  UNL1        0.0019
     33 C          63.1699   87.9014   16.6273 C.3     1  UNL1        0.0273
@<TRIPOS>BOND
     1    32    33    1
     2    33    31    1
     3    31    28    1
     4    28    29    2
     5    28    30    2
     6    28    26    1
     7    26    18    1
     8    18    19   ar
     9    19    20   ar
    10    20    21   ar
    11    21    22    1
    12    21    23   ar
    13    23     1    1
    14     1     2    2
    15     1     3    1
    16     3     4   ar
    17     4     5   ar
    18     5     6   ar
    19     6     7   ar
    20     7     8   ar
    21     8     9   ar
    22     9    13    1
    23    13    14    2
    24    14    15    1
    25    15    16    2
    26    16    17    1
    27     9    10   ar
    28    10    11   ar
    29    23    24   ar
    30    24    25    1
    31    24    18   ar
    32    11     3   ar
    33    11     6    1
    34    17    13    1
    35    26    27    1
    36     7    12    1
@<TRIPOS>MOLECULE
*****
 33 36 0 0 0
SMALL
GASTEIGER

@<TRIPOS>ATOM
      1 C          63.4031   90.0689   13.1267 C.2     1  UNL1        0.2015
      2 O          62.2506   90.5778   12.3128 O.2     1  UNL1       -0.2864
      3 C          63.5767   88.5945   13.3415 C.ar    1  UNL1        0.0611
      4 C          64.3284   87.9501   14.4683 C.ar    1  UNL1        0.1037
      5 N          64.2452   86.4631   14.2902 N.ar    1  UNL1       -0.2269
      6 C          63.4422   86.1884   13.0534 C.ar    1  UNL1        0.1407
      7 N          63.0338   84.9090   12.3854 N.ar    1  UNL1       -0.3374
      8 C          62.2123   84.9469   11.1311 C.ar    1  UNL1        0.0732
      9 C          61.7990   86.2642   10.5447 C.ar    1  UNL1        0.0167
     10 C          62.2074   87.5437   11.2127 C.ar    1  UNL1        0.0044
     11 C          63.0290   87.5057   12.4670 C.ar    1  UNL1        0.0386
     12 H          63.3050   84.0444   12.7703 H       1  UNL1        0.1674
     13 C          60.9774   86.3021    9.2902 C.2     1  UNL1        0.0263
     14 C          59.6990   87.0624    9.0962 C.2     1  UNL1        0.1195
     15 N          59.2214   86.8166    7.6957 N.2     1  UNL1       -0.1510
     16 N          60.2047   85.9043    7.0241 N.2     1  UNL1       -0.1695
     17 C          61.2900   85.5864    8.0096 C.3     1  UNL1        0.1772
     18 C          66.2862   92.7785   13.4373 C.ar    1  UNL1        0.0920
     19 C          66.3403   92.9656   14.9246 C.ar    1  UNL1        0.0204
     20 C          65.4153   92.1872   15.8126 C.ar    1  UNL1        0.0312
     21 C          64.4362   91.2217   15.2134 C.ar    1  UNL1        0.1454
     22 F          63.5113   90.4433   16.1014 F       1  UNL1       -0.2040
     23 C          64.3822   91.0345   13.7261 C.ar    1  UNL1        0.0951
     24 C          65.3072   91.8129   12.8381 C.ar    1  UNL1        0.1598
     25 F          65.2530   91.6257   11.3508 F       1  UNL1       -0.2026
     26 N          67.2112   93.5568   12.5493 N.pl3   1  UNL1       -0.2166
     27 H          68.0756   93.8748   12.8970 H       1  UNL1        0.1734
     28 S          66.8191   93.8507   11.1316 S.O2    1  UNL1        0.0540
     29 O          65.8756   94.9129   11.6128 O.2     1  UNL1       -0.1545
     30 O          67.7626   92.7885   10.6505 O.2     1  UNL1       -0.1545
     31 C          66.4271   94.1445    9.7139 C.3     1  UNL1        0.1724
     32 C          67.3151   96.3549    8.6766 C.3     1  UNL1        0.0019
     33 C          67.3809   94.8619    8.8053 C.3     1  UNL1        0.0273
@<TRIPOS>BOND
     1    32    33    1
     2    33    31    1
     3    31    28    1
     4    28    29    2
     5    28    30    2
     6    28    26    1
     7    26    18    1
     8    18    19   ar
     9    19    20   ar
    10    20    21   ar
    11    21    22    1
    12    21    23   ar
    13    23     1    1
    14     1     2    2
    15     1     3    1
    16     3     4   ar
    17     4     5   ar
    18     5     6   ar
    19     6     7   ar
    20     7     8   ar
    21     8     9   ar
    22     9    13    1
    23    13    14    2
    24    14    15    1
    25    15    16    2
    26    16    17    1
    27     9    10   ar
    28    10    11   ar
    29    23    24   ar
    30    24    25    1
    31    24    18   ar
    32    11     3   ar
    33    11     6    1
    34    17    13    1
    35    26    27    1
    36     7    12    1
