@<TRIPOS>MOLECULE
*****
 30 32 0 0 0
SMALL
GASTEIGER

@<TRIPOS>ATOM
      1 C          60.9978   86.6757   10.5516 C.ar    1  UNL1        0.2445
      2 N          60.6814   85.9359    9.2856 N.ar    1  UNL1       -0.2078
      3 C          60.0973   86.6690    8.1146 C.ar    1  UNL1        0.1135
      4 C          59.8294   88.1418    8.2095 C.ar    1  UNL1        0.0783
      5 CL         59.2453   88.8748    7.0384 Cl      1  UNL1       -0.0806
      6 C          60.1457   88.8816    9.4754 C.ar    1  UNL1        0.0336
      7 C          60.7299   88.1486   10.6465 C.ar    1  UNL1        0.1190
      8 N          61.0462   88.8884   11.9124 N.pl3   1  UNL1       -0.2104
      9 H          60.4790   88.7675   12.7080 H       1  UNL1        0.1739
     10 S          62.2266   89.8123   11.9662 S.O2    1  UNL1        0.0737
     11 O          63.0384   88.7369   12.6252 O.2     1  UNL1       -0.1499
     12 O          61.4148   90.8878   11.3072 O.2     1  UNL1       -0.1499
     13 C          63.4070   90.7363   12.0200 C.ar    1  UNL1        0.1261
     14 C          63.8154   91.5033   10.7974 C.ar    1  UNL1        0.0211
     15 C          64.9958   92.4273   10.8511 C.ar    1  UNL1        0.0136
     16 C          65.7679   92.5843   12.1276 C.ar    1  UNL1        0.0683
     17 CL         66.9483   93.5083   12.1813 Cl      1  UNL1       -0.0814
     18 C          65.3595   91.8172   13.3503 C.ar    1  UNL1        0.0695
     19 CL         66.1315   91.9742   14.6267 Cl      1  UNL1       -0.0813
     20 C          64.1791   90.8933   13.2965 C.ar    1  UNL1        0.0324
     21 O          61.5819   85.9427   11.7227 O.3     1  UNL1       -0.4350
     22 C          63.2617   84.2037   12.6737 C.ar    1  UNL1        0.0486
     23 C          64.2826   83.1275   12.4514 C.ar    1  UNL1        0.0042
     24 C          64.6447   82.7140   11.0557 C.ar    1  UNL1        0.0002
     25 C          63.9858   83.3766    9.8824 C.ar    1  UNL1        0.0031
     26 C          62.9649   84.4528   10.1047 C.ar    1  UNL1        0.0376
     27 C          62.6029   84.8664   11.5004 C.ar    1  UNL1        0.1482
     28 O          62.0049   83.7470   14.9012 O.co2   1  UNL1       -0.5445
     29 C          62.8997   84.6173   14.0694 C.2     1  UNL1        0.0758
     30 O          63.4324   85.9011   14.6332 O.co2   1  UNL1       -0.5445
@<TRIPOS>UNITY_ATOM_ATTR
28 1
charge -1
@<TRIPOS>BOND
     1    28    29   ar
     2    29    30   ar
     3    29    22    1
     4    22    23   ar
     5    23    24   ar
     6    24    25   ar
     7    25    26   ar
     8    26    27   ar
     9    27    21    1
    10    21     1    1
    11     1     2   ar
    12     2     3   ar
    13     3     4   ar
    14     4     5    1
    15     4     6   ar
    16     6     7   ar
    17     7     8    1
    18     8    10    1
    19    10    11    2
    20    10    12    2
    21    10    13    1
    22    13    14   ar
    23    14    15   ar
    24    15    16   ar
    25    16    17    1
    26    16    18   ar
    27    18    19    1
    28    18    20   ar
    29    27    22   ar
    30     7     1   ar
    31    20    13   ar
    32     8     9    1
@<TRIPOS>MOLECULE
*****
 30 32 0 0 0
SMALL
GASTEIGER

@<TRIPOS>ATOM
      1 C          61.0674   86.9411   10.6574 C.ar    1  UNL1        0.2445
      2 N          60.8659   86.1739    9.3842 N.ar    1  UNL1       -0.2078
      3 C          60.2787   86.8544    8.1834 C.ar    1  UNL1        0.1135
      4 C          59.8930   88.3022    8.2557 C.ar    1  UNL1        0.0783
      5 CL         59.3058   88.9828    7.0549 Cl      1  UNL1       -0.0806
      6 C          60.0945   89.0694    9.5288 C.ar    1  UNL1        0.0336
      7 C          60.6817   88.3888   10.7297 C.ar    1  UNL1        0.1190
      8 N          60.8832   89.1560   12.0027 N.pl3   1  UNL1       -0.2104
      9 H          60.1658   89.1894   12.6762 H       1  UNL1        0.1739
     10 S          62.1777   89.8725   12.2498 S.O2    1  UNL1        0.0737
     11 O          62.4487   89.8914   10.7746 O.2     1  UNL1       -0.1499
     12 O          61.9066   89.8535   13.7250 O.2     1  UNL1       -0.1499
     13 C          63.4722   90.5889   12.4969 C.ar    1  UNL1        0.1261
     14 C          64.2191   90.3675   13.7786 C.ar    1  UNL1        0.0211
     15 C          65.5136   91.0839   14.0257 C.ar    1  UNL1        0.0136
     16 C          66.0611   92.0218   12.9910 C.ar    1  UNL1        0.0683
     17 CL         67.3556   92.7382   13.2381 Cl      1  UNL1       -0.0814
     18 C          65.3141   92.2432   11.7092 C.ar    1  UNL1        0.0695
     19 CL         65.8617   93.1810   10.6745 Cl      1  UNL1       -0.0813
     20 C          64.0197   91.5268   11.4621 C.ar    1  UNL1        0.0324
     21 O          61.6547   86.2605   11.8582 O.3     1  UNL1       -0.4350
     22 C          63.2867   84.5131   12.8746 C.ar    1  UNL1        0.0486
     23 C          64.2421   83.3705   12.6966 C.ar    1  UNL1        0.0042
     24 C          64.5209   82.8328   11.3243 C.ar    1  UNL1        0.0002
     25 C          63.8443   83.4376   10.1300 C.ar    1  UNL1        0.0031
     26 C          62.8889   84.5802   10.3080 C.ar    1  UNL1        0.0376
     27 C          62.6101   85.1179   11.6803 C.ar    1  UNL1        0.1482
     28 O          63.8457   86.1651   14.8002 O.co2   1  UNL1       -0.5445
     29 C          63.0079   85.0508   14.2468 C.2     1  UNL1        0.0758
     30 O          61.8912   84.4743   15.0657 O.co2   1  UNL1       -0.5445
@<TRIPOS>UNITY_ATOM_ATTR
28 1
charge -1
@<TRIPOS>BOND
     1    28    29   ar
     2    29    30   ar
     3    29    22    1
     4    22    23   ar
     5    23    24   ar
     6    24    25   ar
     7    25    26   ar
     8    26    27   ar
     9    27    21    1
    10    21     1    1
    11     1     2   ar
    12     2     3   ar
    13     3     4   ar
    14     4     5    1
    15     4     6   ar
    16     6     7   ar
    17     7     8    1
    18     8    10    1
    19    10    11    2
    20    10    12    2
    21    10    13    1
    22    13    14   ar
    23    14    15   ar
    24    15    16   ar
    25    16    17    1
    26    16    18   ar
    27    18    19    1
    28    18    20   ar
    29    27    22   ar
    30     7     1   ar
    31    20    13   ar
    32     8     9    1
@<TRIPOS>MOLECULE
*****
 30 32 0 0 0
SMALL
GASTEIGER

@<TRIPOS>ATOM
      1 C          61.2822   88.5570   11.1170 C.ar    1  UNL1        0.2445
      2 N          60.3180   89.1484   10.1317 N.ar    1  UNL1       -0.2078
      3 C          59.8523   88.3375    8.9589 C.ar    1  UNL1        0.1135
      4 C          60.3509   86.9353    8.7712 C.ar    1  UNL1        0.0783
      5 CL         59.8853   86.1245    7.5983 Cl      1  UNL1       -0.0806
      6 C          61.3151   86.3440    9.7563 C.ar    1  UNL1        0.0336
      7 C          61.7808   87.1548   10.9292 C.ar    1  UNL1        0.1190
      8 N          62.7450   86.5635   11.9144 N.pl3   1  UNL1       -0.2104
      9 H          63.4033   87.1400   12.3656 H       1  UNL1        0.1739
     10 S          62.7064   85.0938   12.2120 S.O2    1  UNL1        0.0737
     11 O          63.1557   84.7984   10.8117 O.2     1  UNL1       -0.1499
     12 O          62.2570   85.3892   13.6123 O.2     1  UNL1       -0.1499
     13 C          62.6677   83.6242   12.5096 C.ar    1  UNL1        0.1261
     14 C          62.4432   83.1491   13.9146 C.ar    1  UNL1        0.0211
     15 C          62.4045   81.6794   14.2122 C.ar    1  UNL1        0.0136
     16 C          62.5903   80.6848   13.1049 C.ar    1  UNL1        0.0683
     17 CL         62.5516   79.2152   13.4025 Cl      1  UNL1       -0.0814
     18 C          62.8148   81.1599   11.6999 C.ar    1  UNL1        0.0695
     19 CL         63.0006   80.1652   10.5926 Cl      1  UNL1       -0.0813
     20 C          62.8535   82.6295   11.4022 C.ar    1  UNL1        0.0324
     21 O          61.7479   89.3679   12.2898 O.3     1  UNL1       -0.4350
     22 C          63.8869   90.4695   13.2703 C.ar    1  UNL1        0.0486
     23 C          65.0524   91.4020   13.1220 C.ar    1  UNL1        0.0042
     24 C          65.2446   92.1653   11.8451 C.ar    1  UNL1        0.0002
     25 C          64.2712   91.9961   10.7165 C.ar    1  UNL1        0.0031
     26 C          63.1057   91.0637   10.8647 C.ar    1  UNL1        0.0376
     27 C          62.9135   90.3004   12.1416 C.ar    1  UNL1        0.1482
     28 O          63.2402   90.4192   15.7860 O.co2   1  UNL1       -0.5445
     29 C          63.6947   89.7062   14.5472 C.2     1  UNL1        0.0758
     30 O          63.9571   88.2298   14.5851 O.co2   1  UNL1       -0.5445
@<TRIPOS>UNITY_ATOM_ATTR
28 1
charge -1
@<TRIPOS>BOND
     1    28    29   ar
     2    29    30   ar
     3    29    22    1
     4    22    23   ar
     5    23    24   ar
     6    24    25   ar
     7    25    26   ar
     8    26    27   ar
     9    27    21    1
    10    21     1    1
    11     1     2   ar
    12     2     3   ar
    13     3     4   ar
    14     4     5    1
    15     4     6   ar
    16     6     7   ar
    17     7     8    1
    18     8    10    1
    19    10    11    2
    20    10    12    2
    21    10    13    1
    22    13    14   ar
    23    14    15   ar
    24    15    16   ar
    25    16    17    1
    26    16    18   ar
    27    18    19    1
    28    18    20   ar
    29    27    22   ar
    30     7     1   ar
    31    20    13   ar
    32     8     9    1
@<TRIPOS>MOLECULE
*****
 30 32 0 0 0
SMALL
GASTEIGER

@<TRIPOS>ATOM
      1 C          63.9813   88.6344   14.7366 C.ar    1  UNL1        0.2445
      2 N          63.4197   89.5155   15.8129 N.ar    1  UNL1       -0.2078
      3 C          62.9376   88.9136   17.0994 C.ar    1  UNL1        0.1135
      4 C          63.0171   87.4305   17.3097 C.ar    1  UNL1        0.0783
      5 CL         62.5349   86.8286   18.5963 Cl      1  UNL1       -0.0806
      6 C          63.5786   86.5494   16.2336 C.ar    1  UNL1        0.0336
      7 C          64.0608   87.1513   14.9469 C.ar    1  UNL1        0.1190
      8 N          64.6223   86.2702   13.8708 N.pl3   1  UNL1       -0.2104
      9 H          65.3462   86.6012   13.2914 H       1  UNL1        0.1739
     10 S          64.0810   84.8847   13.6773 S.O2    1  UNL1        0.0737
     11 O          62.8363   85.4564   13.0657 O.2     1  UNL1       -0.1499
     12 O          65.3256   84.3130   14.2888 O.2     1  UNL1       -0.1499
     13 C          63.5396   83.4993   13.4838 C.ar    1  UNL1        0.1261
     14 C          62.9141   82.7707   14.6361 C.ar    1  UNL1        0.0211
     15 C          62.3728   81.3853   14.4426 C.ar    1  UNL1        0.0136
     16 C          62.4569   80.7283   13.0968 C.ar    1  UNL1        0.0683
     17 CL         61.9156   79.3429   12.9033 Cl      1  UNL1       -0.0814
     18 C          63.0825   81.4569   11.9443 C.ar    1  UNL1        0.0695
     19 CL         63.1666   80.7999   10.5985 Cl      1  UNL1       -0.0813
     20 C          63.6238   82.8423   12.1378 C.ar    1  UNL1        0.0324
     21 O          64.4634   89.2363   13.4501 O.3     1  UNL1       -0.4350
     22 C          63.5422   90.7837   11.5774 C.ar    1  UNL1        0.0486
     23 C          62.5756   91.0350   10.4583 C.ar    1  UNL1        0.0042
     24 C          61.5634   89.9901   10.0927 C.ar    1  UNL1        0.0002
     25 C          61.5179   88.6939   10.8463 C.ar    1  UNL1        0.0031
     26 C          62.4846   88.4426   11.9653 C.ar    1  UNL1        0.0376
     27 C          63.4967   89.4876   12.3309 C.ar    1  UNL1        0.1482
     28 O          65.4093   92.4497   10.8784 O.co2   1  UNL1       -0.5445
     29 C          64.5544   91.8287   11.9430 C.2     1  UNL1        0.0758
     30 O          64.7117   92.2526   13.3732 O.co2   1  UNL1       -0.5445
@<TRIPOS>UNITY_ATOM_ATTR
28 1
charge -1
@<TRIPOS>BOND
     1    28    29   ar
     2    29    30   ar
     3    29    22    1
     4    22    23   ar
     5    23    24   ar
     6    24    25   ar
     7    25    26   ar
     8    26    27   ar
     9    27    21    1
    10    21     1    1
    11     1     2   ar
    12     2     3   ar
    13     3     4   ar
    14     4     5    1
    15     4     6   ar
    16     6     7   ar
    17     7     8    1
    18     8    10    1
    19    10    11    2
    20    10    12    2
    21    10    13    1
    22    13    14   ar
    23    14    15   ar
    24    15    16   ar
    25    16    17    1
    26    16    18   ar
    27    18    19    1
    28    18    20   ar
    29    27    22   ar
    30     7     1   ar
    31    20    13   ar
    32     8     9    1
@<TRIPOS>MOLECULE
*****
 30 32 0 0 0
SMALL
GASTEIGER

@<TRIPOS>ATOM
      1 C          64.0493   89.6469   14.6551 C.ar    1  UNL1        0.2445
      2 N          65.4287   90.1687   14.9286 N.ar    1  UNL1       -0.2078
      3 C          66.0156   91.2335   14.0501 C.ar    1  UNL1        0.1135
      4 C          65.2231   91.7765   12.8981 C.ar    1  UNL1        0.0783
      5 CL         65.8099   92.8413   12.0197 Cl      1  UNL1       -0.0806
      6 C          63.8436   91.2547   12.6246 C.ar    1  UNL1        0.0336
      7 C          63.2567   90.1899   13.5031 C.ar    1  UNL1        0.1190
      8 N          61.8773   89.6680   13.2296 N.pl3   1  UNL1       -0.2104
      9 H          61.1450   89.8588   13.8594 H       1  UNL1        0.1739
     10 S          61.6135   88.8556   11.9966 S.O2    1  UNL1        0.0737
     11 O          60.3296   89.6004   11.7805 O.2     1  UNL1       -0.1499
     12 O          62.8975   88.1108   12.2127 O.2     1  UNL1       -0.1499
     13 C          61.3498   88.0432   10.7635 C.ar    1  UNL1        0.1261
     14 C          60.0624   88.2151   10.0132 C.ar    1  UNL1        0.0211
     15 C          59.7987   87.4027    8.7802 C.ar    1  UNL1        0.0136
     16 C          60.8223   86.4183    8.2975 C.ar    1  UNL1        0.0683
     17 CL         60.5586   85.6058    7.0644 Cl      1  UNL1       -0.0814
     18 C          62.1098   86.2463    9.0478 C.ar    1  UNL1        0.0695
     19 CL         63.1334   85.2618    8.5651 Cl      1  UNL1       -0.0813
     20 C          62.3735   87.0587   10.2808 C.ar    1  UNL1        0.0324
     21 O          63.4624   88.5821   15.5335 O.3     1  UNL1       -0.4350
     22 C          63.3260   86.0936   16.2679 C.ar    1  UNL1        0.0486
     23 C          63.7656   84.6678   16.1139 C.ar    1  UNL1        0.0042
     24 C          64.7814   84.3046   15.0716 C.ar    1  UNL1        0.0002
     25 C          65.3574   85.3671   14.1834 C.ar    1  UNL1        0.0031
     26 C          64.9178   86.7929   14.3373 C.ar    1  UNL1        0.0376
     27 C          63.9020   87.1562   15.3796 C.ar    1  UNL1        0.1482
     28 O          62.7578   86.8952   18.6730 O.co2   1  UNL1       -0.5445
     29 C          62.3102   86.4569   17.3101 C.2     1  UNL1        0.0758
     30 O          60.8468   86.3819   16.9895 O.co2   1  UNL1       -0.5445
@<TRIPOS>UNITY_ATOM_ATTR
28 1
charge -1
@<TRIPOS>BOND
     1    28    29   ar
     2    29    30   ar
     3    29    22    1
     4    22    23   ar
     5    23    24   ar
     6    24    25   ar
     7    25    26   ar
     8    26    27   ar
     9    27    21    1
    10    21     1    1
    11     1     2   ar
    12     2     3   ar
    13     3     4   ar
    14     4     5    1
    15     4     6   ar
    16     6     7   ar
    17     7     8    1
    18     8    10    1
    19    10    11    2
    20    10    12    2
    21    10    13    1
    22    13    14   ar
    23    14    15   ar
    24    15    16   ar
    25    16    17    1
    26    16    18   ar
    27    18    19    1
    28    18    20   ar
    29    27    22   ar
    30     7     1   ar
    31    20    13   ar
    32     8     9    1
@<TRIPOS>MOLECULE
*****
 30 32 0 0 0
SMALL
GASTEIGER

@<TRIPOS>ATOM
      1 C          63.8603   88.9669   14.8648 C.ar    1  UNL1        0.2445
      2 N          63.4529   89.7564   16.0734 N.ar    1  UNL1       -0.2078
      3 C          63.0393   89.0466   17.3285 C.ar    1  UNL1        0.1135
      4 C          63.0332   87.5474   17.3750 C.ar    1  UNL1        0.0783
      5 CL         62.6197   86.8376   18.6300 Cl      1  UNL1       -0.0806
      6 C          63.4407   86.7579   16.1665 C.ar    1  UNL1        0.0336
      7 C          63.8542   87.4676   14.9113 C.ar    1  UNL1        0.1190
      8 N          64.2617   86.6781   13.7028 N.pl3   1  UNL1       -0.2104
      9 H          64.8200   87.0953   13.0075 H       1  UNL1        0.1739
     10 S          63.8185   85.2528   13.5536 S.O2    1  UNL1        0.0737
     11 O          62.5665   85.7139   12.8680 O.2     1  UNL1       -0.1499
     12 O          65.0705   84.7918   14.2392 O.2     1  UNL1       -0.1499
     13 C          63.3753   83.8276   13.4044 C.ar    1  UNL1        0.1261
     14 C          62.7984   83.0947   14.5791 C.ar    1  UNL1        0.0211
     15 C          62.3553   81.6694   14.4299 C.ar    1  UNL1        0.0136
     16 C          62.4890   80.9771   13.1060 C.ar    1  UNL1        0.0683
     17 CL         62.0458   79.5518   12.9568 Cl      1  UNL1       -0.0814
     18 C          63.0660   81.7100   11.9312 C.ar    1  UNL1        0.0695
     19 CL         63.1997   81.0176   10.6074 Cl      1  UNL1       -0.0813
     20 C          63.5091   83.1352   12.0804 C.ar    1  UNL1        0.0324
     21 O          64.2739   89.6766   13.6098 O.3     1  UNL1       -0.4350
     22 C          65.0405   91.9292   12.5666 C.ar    1  UNL1        0.0486
     23 C          65.8461   93.1918   12.6498 C.ar    1  UNL1        0.0042
     24 C          66.6905   93.4644   13.8591 C.ar    1  UNL1        0.0002
     25 C          66.7295   92.4745   14.9853 C.ar    1  UNL1        0.0031
     26 C          65.9239   91.2119   14.9022 C.ar    1  UNL1        0.0376
     27 C          65.0795   90.9393   13.6929 C.ar    1  UNL1        0.1482
     28 O          63.2223   90.5157   11.3642 O.co2   1  UNL1       -0.5445
     29 C          64.1960   91.6566   11.3573 C.2     1  UNL1        0.0758
     30 O          64.3253   92.5249   10.1410 O.co2   1  UNL1       -0.5445
@<TRIPOS>UNITY_ATOM_ATTR
28 1
charge -1
@<TRIPOS>BOND
     1    28    29   ar
     2    29    30   ar
     3    29    22    1
     4    22    23   ar
     5    23    24   ar
     6    24    25   ar
     7    25    26   ar
     8    26    27   ar
     9    27    21    1
    10    21     1    1
    11     1     2   ar
    12     2     3   ar
    13     3     4   ar
    14     4     5    1
    15     4     6   ar
    16     6     7   ar
    17     7     8    1
    18     8    10    1
    19    10    11    2
    20    10    12    2
    21    10    13    1
    22    13    14   ar
    23    14    15   ar
    24    15    16   ar
    25    16    17    1
    26    16    18   ar
    27    18    19    1
    28    18    20   ar
    29    27    22   ar
    30     7     1   ar
    31    20    13   ar
    32     8     9    1
@<TRIPOS>MOLECULE
*****
 30 32 0 0 0
SMALL
GASTEIGER

@<TRIPOS>ATOM
      1 C          63.3866   84.2731   13.9559 C.ar    1  UNL1        0.2445
      2 N          62.9132   83.4310   15.1034 N.ar    1  UNL1       -0.2078
      3 C          62.2943   82.0895   14.8440 C.ar    1  UNL1        0.1135
      4 C          62.1486   81.5901   13.4371 C.ar    1  UNL1        0.0783
      5 CL         61.5296   80.2486   13.1778 Cl      1  UNL1       -0.0806
      6 C          62.6219   82.4321   12.2896 C.ar    1  UNL1        0.0336
      7 C          63.2410   83.7737   12.5490 C.ar    1  UNL1        0.1190
      8 N          63.7143   84.6157   11.4014 N.pl3   1  UNL1       -0.2104
      9 H          64.6741   84.6609   11.1871 H       1  UNL1        0.1739
     10 S          62.7252   85.3889   10.5805 S.O2    1  UNL1        0.0737
     11 O          63.3606   84.8688    9.3252 O.2     1  UNL1       -0.1499
     12 O          62.0899   85.9091   11.8358 O.2     1  UNL1       -0.1499
     13 C          61.7362   86.1621    9.7595 C.ar    1  UNL1        0.1261
     14 C          61.0983   85.5271    8.5596 C.ar    1  UNL1        0.0211
     15 C          60.1093   86.3003    7.7386 C.ar    1  UNL1        0.0136
     16 C          59.7581   87.7085    8.1176 C.ar    1  UNL1        0.0683
     17 CL         58.7691   88.4817    7.2967 Cl      1  UNL1       -0.0814
     18 C          60.3960   88.3436    9.3176 C.ar    1  UNL1        0.0695
     19 CL         60.0448   89.7518    9.6966 Cl      1  UNL1       -0.0813
     20 C          61.3850   87.5704   10.1385 C.ar    1  UNL1        0.0324
     21 O          64.0056   85.6145   14.2152 O.3     1  UNL1       -0.4350
     22 C          63.6819   87.8961   15.4152 C.ar    1  UNL1        0.0486
     23 C          63.2916   88.6792   16.6335 C.ar    1  UNL1        0.0042
     24 C          62.8346   87.9639   17.8702 C.ar    1  UNL1        0.0002
     25 C          62.7679   86.4656   17.8887 C.ar    1  UNL1        0.0031
     26 C          63.1582   85.6825   16.6703 C.ar    1  UNL1        0.0376
     27 C          63.6152   86.3977   15.4336 C.ar    1  UNL1        0.1482
     28 O          63.6373   88.1781   12.8329 O.co2   1  UNL1       -0.5445
     29 C          64.1389   88.6114   14.1784 C.2     1  UNL1        0.0758
     30 O          65.0976   89.7599   14.2873 O.co2   1  UNL1       -0.5445
@<TRIPOS>UNITY_ATOM_ATTR
28 1
charge -1
@<TRIPOS>BOND
     1    28    29   ar
     2    29    30   ar
     3    29    22    1
     4    22    23   ar
     5    23    24   ar
     6    24    25   ar
     7    25    26   ar
     8    26    27   ar
     9    27    21    1
    10    21     1    1
    11     1     2   ar
    12     2     3   ar
    13     3     4   ar
    14     4     5    1
    15     4     6   ar
    16     6     7   ar
    17     7     8    1
    18     8    10    1
    19    10    11    2
    20    10    12    2
    21    10    13    1
    22    13    14   ar
    23    14    15   ar
    24    15    16   ar
    25    16    17    1
    26    16    18   ar
    27    18    19    1
    28    18    20   ar
    29    27    22   ar
    30     7     1   ar
    31    20    13   ar
    32     8     9    1
@<TRIPOS>MOLECULE
*****
 30 32 0 0 0
SMALL
GASTEIGER

@<TRIPOS>ATOM
      1 C          62.5178   86.4288   11.4797 C.ar    1  UNL1        0.2445
      2 N          62.8567   84.9738   11.6145 N.ar    1  UNL1       -0.2078
      3 C          63.6142   84.4882   12.8146 C.ar    1  UNL1        0.1135
      4 C          64.0329   85.4576   13.8800 C.ar    1  UNL1        0.0783
      5 CL         64.7904   84.9720   15.0801 Cl      1  UNL1       -0.0806
      6 C          63.6941   86.9126   13.7452 C.ar    1  UNL1        0.0336
      7 C          62.9365   87.3982   12.5451 C.ar    1  UNL1        0.1190
      8 N          62.5977   88.8532   12.4103 N.pl3   1  UNL1       -0.2104
      9 H          61.7428   89.1239   12.0039 H       1  UNL1        0.1739
     10 S          63.5612   89.8957   12.8948 S.O2    1  UNL1        0.0737
     11 O          63.8504   90.2877   11.4761 O.2     1  UNL1       -0.1499
     12 O          63.2720   89.5036   14.3135 O.2     1  UNL1       -0.1499
     13 C          64.5248   90.9381   13.3793 C.ar    1  UNL1        0.1261
     14 C          65.0689   90.8656   14.7753 C.ar    1  UNL1        0.0211
     15 C          66.0325   91.9081   15.2598 C.ar    1  UNL1        0.0136
     16 C          66.4520   93.0231   14.3483 C.ar    1  UNL1        0.0683
     17 CL         67.4156   94.0656   14.8328 Cl      1  UNL1       -0.0814
     18 C          65.9079   93.0957   12.9523 C.ar    1  UNL1        0.0695
     19 CL         66.3274   94.2106   12.0409 Cl      1  UNL1       -0.0813
     20 C          64.9443   92.0532   12.4678 C.ar    1  UNL1        0.0324
     21 O          61.7603   86.9144   10.2796 O.3     1  UNL1       -0.4350
     22 C          60.7138   86.2622    7.9928 C.ar    1  UNL1        0.0486
     23 C          60.7821   85.4988    6.7034 C.ar    1  UNL1        0.0042
     24 C          61.9653   84.6243    6.4114 C.ar    1  UNL1        0.0002
     25 C          63.0801   84.5131    7.4088 C.ar    1  UNL1        0.0031
     26 C          63.0117   85.2765    8.6981 C.ar    1  UNL1        0.0376
     27 C          61.8286   86.1510    8.9901 C.ar    1  UNL1        0.1482
     28 O          59.7314   88.4879    8.9044 O.co2   1  UNL1       -0.5445
     29 C          59.5306   87.1368    8.2848 C.2     1  UNL1        0.0758
     30 O          58.1466   86.6602    7.9571 O.co2   1  UNL1       -0.5445
@<TRIPOS>UNITY_ATOM_ATTR
28 1
charge -1
@<TRIPOS>BOND
     1    28    29   ar
     2    29    30   ar
     3    29    22    1
     4    22    23   ar
     5    23    24   ar
     6    24    25   ar
     7    25    26   ar
     8    26    27   ar
     9    27    21    1
    10    21     1    1
    11     1     2   ar
    12     2     3   ar
    13     3     4   ar
    14     4     5    1
    15     4     6   ar
    16     6     7   ar
    17     7     8    1
    18     8    10    1
    19    10    11    2
    20    10    12    2
    21    10    13    1
    22    13    14   ar
    23    14    15   ar
    24    15    16   ar
    25    16    17    1
    26    16    18   ar
    27    18    19    1
    28    18    20   ar
    29    27    22   ar
    30     7     1   ar
    31    20    13   ar
    32     8     9    1
@<TRIPOS>MOLECULE
*****
 30 32 0 0 0
SMALL
GASTEIGER

@<TRIPOS>ATOM
      1 C          63.9089   84.6451   14.0941 C.ar    1  UNL1        0.2445
      2 N          64.5555   83.2926   14.0393 N.ar    1  UNL1       -0.2078
      3 C          64.6778   82.5723   12.7293 C.ar    1  UNL1        0.1135
      4 C          64.1536   83.2043   11.4740 C.ar    1  UNL1        0.0783
      5 CL         64.2760   82.4840   10.1640 Cl      1  UNL1       -0.0806
      6 C          63.5071   84.5567   11.5287 C.ar    1  UNL1        0.0336
      7 C          63.3847   85.2771   12.8388 C.ar    1  UNL1        0.1190
      8 N          62.7381   86.6295   12.8935 N.pl3   1  UNL1       -0.2104
      9 H          62.7811   87.1625   13.7201 H       1  UNL1        0.1739
     10 S          62.0261   87.1696   11.6888 S.O2    1  UNL1        0.0737
     11 O          62.9908   88.3169   11.6331 O.2     1  UNL1       -0.1499
     12 O          61.0614   86.0224   11.7446 O.2     1  UNL1       -0.1499
     13 C          61.3140   87.7098   10.4842 C.ar    1  UNL1        0.1261
     14 C          61.3135   89.1849   10.2120 C.ar    1  UNL1        0.0211
     15 C          60.6015   89.7251    9.0074 C.ar    1  UNL1        0.0136
     16 C          59.8900   88.7902    8.0748 C.ar    1  UNL1        0.0683
     17 CL         59.1779   89.3304    6.8702 Cl      1  UNL1       -0.0814
     18 C          59.8905   87.3150    8.3469 C.ar    1  UNL1        0.0695
     19 CL         59.1790   86.3801    7.4144 Cl      1  UNL1       -0.0813
     20 C          60.6025   86.7748    9.5516 C.ar    1  UNL1        0.0324
     21 O          63.7865   85.3654   15.4041 O.3     1  UNL1       -0.4350
     22 C          63.0791   87.6188   16.4865 C.ar    1  UNL1        0.0486
     23 C          63.1430   89.1169   16.5274 C.ar    1  UNL1        0.0042
     24 C          63.9781   89.8596   15.5270 C.ar    1  UNL1        0.0002
     25 C          64.7494   89.1043   14.4856 C.ar    1  UNL1        0.0031
     26 C          64.6855   87.6062   14.4446 C.ar    1  UNL1        0.0376
     27 C          63.8504   86.8635   15.4451 C.ar    1  UNL1        0.1482
     28 O          62.6106   86.9079   18.9411 O.co2   1  UNL1       -0.5445
     29 C          62.2440   86.8761   17.4869 C.2     1  UNL1        0.0758
     30 O          61.0422   86.1016   17.0332 O.co2   1  UNL1       -0.5445
@<TRIPOS>UNITY_ATOM_ATTR
28 1
charge -1
@<TRIPOS>BOND
     1    28    29   ar
     2    29    30   ar
     3    29    22    1
     4    22    23   ar
     5    23    24   ar
     6    24    25   ar
     7    25    26   ar
     8    26    27   ar
     9    27    21    1
    10    21     1    1
    11     1     2   ar
    12     2     3   ar
    13     3     4   ar
    14     4     5    1
    15     4     6   ar
    16     6     7   ar
    17     7     8    1
    18     8    10    1
    19    10    11    2
    20    10    12    2
    21    10    13    1
    22    13    14   ar
    23    14    15   ar
    24    15    16   ar
    25    16    17    1
    26    16    18   ar
    27    18    19    1
    28    18    20   ar
    29    27    22   ar
    30     7     1   ar
    31    20    13   ar
    32     8     9    1
