@<TRIPOS>MOLECULE
*****
 36 40 0 0 0
SMALL
GASTEIGER

@<TRIPOS>ATOM
      1 N          62.9968   90.6955   12.2944 N.3     1  UNL1       -0.2679
      2 C          64.2230   91.5330   12.0821 C.3     1  UNL1        0.0978
      3 C          64.6405   91.9127   10.6924 C.3     1  UNL1        0.0224
      4 C          65.8667   92.7503   10.4801 C.3     1  UNL1        0.0065
      5 C          66.6753   93.2080   11.6576 C.3     1  UNL1        0.0277
      6 C          66.2578   92.8283   13.0473 C.ar    1  UNL1       -0.0073
      7 C          67.0664   93.2861   14.2249 C.ar    1  UNL1       -0.0015
      8 C          66.6489   92.9064   15.6146 C.ar    1  UNL1        0.0203
      9 C          65.4227   92.0688   15.8269 C.ar    1  UNL1        0.0985
     10 N          64.6141   91.6111   14.6494 N.ar    1  UNL1       -0.2471
     11 C          65.0316   91.9908   13.2596 C.ar    1  UNL1        0.0695
     12 C          62.9598   89.6879   13.4049 C.3     1  UNL1        0.0725
     13 C          63.8915   88.5124   13.3825 C.3     1  UNL1        0.0188
     14 C          64.3864   87.9230   14.6700 C.3     1  UNL1        0.0185
     15 C          64.4222   86.4341   14.8483 C.3     1  UNL1        0.0689
     16 N          63.5134   85.5594   14.0365 N.3     1  UNL1       -0.2937
     17 H          62.5584   85.8408   14.2583 H       1  UNL1        0.1236
     18 C          63.5724   84.0686   14.1909 C.3     1  UNL1        0.0972
     19 C          64.0340   82.7785   10.4663 C.ar    1  UNL1        0.0204
     20 C          63.4015   81.4214   10.5560 C.ar    1  UNL1        0.0989
     21 N          62.8259   80.9466   11.8572 N.ar    1  UNL1       -0.2426
     22 C          62.8829   81.8290   13.0689 C.ar    1  UNL1        0.0959
     23 C          63.5154   83.1861   12.9793 C.ar    1  UNL1        0.0128
     24 C          64.0909   83.6609   11.6780 C.ar    1  UNL1        0.0002
     25 C          61.8076   90.8656   11.3961 C.3     1  UNL1        0.0886
     26 C          61.4181   89.7675   10.4514 C.3     1  UNL1        0.0748
     27 C          62.3327   88.5968   10.2442 C.3     1  UNL1        0.0432
     28 C          61.9432   87.4987    9.2994 C.ar    1  UNL1       -0.0234
     29 C          62.8578   86.3280    9.0923 C.ar    1  UNL1       -0.0045
     30 C          62.4682   85.2299    8.1476 C.ar    1  UNL1       -0.0003
     31 C          61.1642   85.3026    7.4100 C.ar    1  UNL1       -0.0003
     32 C          60.2496   86.4734    7.6171 C.ar    1  UNL1       -0.0032
     33 C          60.6391   87.5714    8.5618 C.ar    1  UNL1       -0.0103
     34 C          59.7245   88.7422    8.7690 C.3     1  UNL1        0.0953
     35 N          60.1140   89.8402    9.7137 N.3     1  UNL1       -0.2934
     36 H          59.3795   89.8960   10.4192 H       1  UNL1        0.1236
@<TRIPOS>BOND
     1    19    20   ar
     2    20    21   ar
     3    21    22   ar
     4    22    23   ar
     5    23    18    1
     6    18    16    1
     7    16    15    1
     8    15    14    1
     9    14    13    1
    10    13    12    1
    11    12     1    1
    12     1    25    1
    13    26    25    1
    14    26    27    1
    15    27    28    1
    16    28    29   ar
    17    29    30   ar
    18    30    31   ar
    19    31    32   ar
    20    32    33   ar
    21    33    34    1
    22    34    35    1
    23     2     1    1
    24     2     3    1
    25     3     4    1
    26     4     5    1
    27     5     6    1
    28     6     7   ar
    29     7     8   ar
    30     8     9   ar
    31     9    10   ar
    32    10    11   ar
    33    23    24   ar
    34    24    19   ar
    35    35    26    1
    36    11     2    1
    37    33    28   ar
    38    11     6   ar
    39    16    17    1
    40    35    36    1
@<TRIPOS>MOLECULE
*****
 36 40 0 0 0
SMALL
GASTEIGER

@<TRIPOS>ATOM
      1 N          63.4527   88.8661   14.0146 N.3     1  UNL1       -0.2679
      2 C          63.3009   89.5973   12.7137 C.3     1  UNL1        0.0978
      3 C          64.0829   90.8525   12.4632 C.3     1  UNL1        0.0224
      4 C          63.9311   91.5836   11.1623 C.3     1  UNL1        0.0065
      5 C          62.9973   91.0596   10.1119 C.3     1  UNL1        0.0277
      6 C          62.2152   89.8044   10.3625 C.ar    1  UNL1       -0.0073
      7 C          61.2813   89.2803    9.3121 C.ar    1  UNL1       -0.0015
      8 C          60.4993   88.0251    9.5627 C.ar    1  UNL1        0.0203
      9 C          60.6511   87.2940   10.8636 C.ar    1  UNL1        0.0985
     10 N          61.5849   87.8180   11.9139 N.ar    1  UNL1       -0.2471
     11 C          62.3670   89.0732   11.6634 C.ar    1  UNL1        0.0695
     12 C          62.6884   89.3191   15.2232 C.3     1  UNL1        0.0725
     13 C          63.4106   89.9633   16.3693 C.3     1  UNL1        0.0188
     14 C          63.9139   91.3706   16.2427 C.3     1  UNL1        0.0185
     15 C          65.2072   91.6436   15.5337 C.3     1  UNL1        0.0689
     16 N          65.6215   93.0565   15.2467 N.3     1  UNL1       -0.2937
     17 H          64.8623   93.4841   14.7165 H       1  UNL1        0.1236
     18 C          66.8863   93.3276   14.4874 C.3     1  UNL1        0.0972
     19 C          67.5094   92.2036   10.7326 C.ar    1  UNL1        0.0204
     20 C          66.8530   93.3279    9.9875 C.ar    1  UNL1        0.0989
     21 N          66.2077   94.4520   10.7424 N.ar    1  UNL1       -0.2426
     22 C          66.2188   94.4520   12.2423 C.ar    1  UNL1        0.0959
     23 C          66.8752   93.3277   12.9873 C.ar    1  UNL1        0.0128
     24 C          67.5205   92.2036   12.2325 C.ar    1  UNL1        0.0002
     25 C          64.3688   87.6820   14.1070 C.3     1  UNL1        0.0886
     26 C          63.7982   86.2979   14.2016 C.3     1  UNL1        0.0748
     27 C          63.7405   85.4255   12.9828 C.3     1  UNL1        0.0432
     28 C          63.1700   84.0414   13.0774 C.ar    1  UNL1       -0.0234
     29 C          63.1123   83.1691   11.8585 C.ar    1  UNL1       -0.0045
     30 C          62.5418   81.7851   11.9532 C.ar    1  UNL1       -0.0003
     31 C          62.0290   81.2734   13.2667 C.ar    1  UNL1       -0.0003
     32 C          62.0867   82.1458   14.4855 C.ar    1  UNL1       -0.0032
     33 C          62.6572   83.5298   14.3909 C.ar    1  UNL1       -0.0103
     34 C          62.7149   84.4022   15.6097 C.3     1  UNL1        0.0953
     35 N          63.2854   85.7862   15.5151 N.3     1  UNL1       -0.2934
     36 H          64.0644   85.8292   16.1722 H       1  UNL1        0.1236
@<TRIPOS>BOND
     1    19    20   ar
     2    20    21   ar
     3    21    22   ar
     4    22    23   ar
     5    23    18    1
     6    18    16    1
     7    16    15    1
     8    15    14    1
     9    14    13    1
    10    13    12    1
    11    12     1    1
    12     1    25    1
    13    26    25    1
    14    26    27    1
    15    27    28    1
    16    28    29   ar
    17    29    30   ar
    18    30    31   ar
    19    31    32   ar
    20    32    33   ar
    21    33    34    1
    22    34    35    1
    23     2     1    1
    24     2     3    1
    25     3     4    1
    26     4     5    1
    27     5     6    1
    28     6     7   ar
    29     7     8   ar
    30     8     9   ar
    31     9    10   ar
    32    10    11   ar
    33    23    24   ar
    34    24    19   ar
    35    35    26    1
    36    11     2    1
    37    33    28   ar
    38    11     6   ar
    39    16    17    1
    40    35    36    1
@<TRIPOS>MOLECULE
*****
 36 40 0 0 0
SMALL
GASTEIGER

@<TRIPOS>ATOM
      1 N          63.3167   88.8536   13.4376 N.3     1  UNL1       -0.2679
      2 C          62.8662   89.2388   12.0597 C.3     1  UNL1        0.0978
      3 C          63.0722   90.6408   11.5679 C.3     1  UNL1        0.0224
      4 C          62.6217   91.0260   10.1900 C.3     1  UNL1        0.0065
      5 C          61.9652   90.0093    9.3039 C.3     1  UNL1        0.0277
      6 C          61.7592   88.6073    9.7957 C.ar    1  UNL1       -0.0073
      7 C          61.1027   87.5905    8.9096 C.ar    1  UNL1       -0.0015
      8 C          60.8967   86.1885    9.4014 C.ar    1  UNL1        0.0203
      9 C          61.3472   85.8032   10.7793 C.ar    1  UNL1        0.0985
     10 N          62.0037   86.8200   11.6654 N.ar    1  UNL1       -0.2471
     11 C          62.2097   88.2220   11.1736 C.ar    1  UNL1        0.0695
     12 C          63.9690   87.5227   13.6687 C.3     1  UNL1        0.0725
     13 C          64.4746   87.1623   15.0342 C.3     1  UNL1        0.0188
     14 C          64.4843   85.7290   15.4762 C.3     1  UNL1        0.0185
     15 C          63.2170   85.0818   15.9506 C.3     1  UNL1        0.0689
     16 N          62.2280   84.5508   14.9556 N.3     1  UNL1       -0.2937
     17 H          61.3013   84.6901   15.3584 H       1  UNL1        0.1236
     18 C          62.2993   83.1176   14.5188 C.3     1  UNL1        0.0972
     19 C          64.3265   83.3701   11.1163 C.ar    1  UNL1        0.0204
     20 C          63.9326   82.0825   10.4554 C.ar    1  UNL1        0.0989
     21 N          62.9943   81.1398   11.1490 N.ar    1  UNL1       -0.2426
     22 C          62.4499   81.4849   12.5034 C.ar    1  UNL1        0.0959
     23 C          62.8438   82.7725   13.1643 C.ar    1  UNL1        0.0128
     24 C          63.7821   83.7151   12.4707 C.ar    1  UNL1        0.0002
     25 C          63.1150   89.7991   14.5844 C.3     1  UNL1        0.0886
     26 C          64.2320   90.7018   15.0175 C.3     1  UNL1        0.0748
     27 C          65.5267   90.7096   14.2602 C.3     1  UNL1        0.0432
     28 C          66.6437   91.6123   14.6933 C.ar    1  UNL1       -0.0234
     29 C          67.9384   91.6200   13.9359 C.ar    1  UNL1       -0.0045
     30 C          69.0552   92.5227   14.3691 C.ar    1  UNL1       -0.0003
     31 C          68.8774   93.4176   15.5597 C.ar    1  UNL1       -0.0003
     32 C          67.5827   93.4099   16.3171 C.ar    1  UNL1       -0.0032
     33 C          66.4659   92.5072   15.8839 C.ar    1  UNL1       -0.0103
     34 C          65.1711   92.4995   16.6413 C.3     1  UNL1        0.0953
     35 N          64.0542   91.5968   16.2081 N.3     1  UNL1       -0.2934
     36 H          63.2522   92.1950   16.0096 H       1  UNL1        0.1236
@<TRIPOS>BOND
     1    19    20   ar
     2    20    21   ar
     3    21    22   ar
     4    22    23   ar
     5    23    18    1
     6    18    16    1
     7    16    15    1
     8    15    14    1
     9    14    13    1
    10    13    12    1
    11    12     1    1
    12     1    25    1
    13    26    25    1
    14    26    27    1
    15    27    28    1
    16    28    29   ar
    17    29    30   ar
    18    30    31   ar
    19    31    32   ar
    20    32    33   ar
    21    33    34    1
    22    34    35    1
    23     2     1    1
    24     2     3    1
    25     3     4    1
    26     4     5    1
    27     5     6    1
    28     6     7   ar
    29     7     8   ar
    30     8     9   ar
    31     9    10   ar
    32    10    11   ar
    33    23    24   ar
    34    24    19   ar
    35    35    26    1
    36    11     2    1
    37    33    28   ar
    38    11     6   ar
    39    16    17    1
    40    35    36    1
@<TRIPOS>MOLECULE
*****
 36 40 0 0 0
SMALL
GASTEIGER

@<TRIPOS>ATOM
      1 N          63.8054   90.0621   13.5790 N.3     1  UNL1       -0.2679
      2 C          64.7480   91.1932   13.8655 C.3     1  UNL1        0.0978
      3 C          65.2683   91.4018   15.2568 C.3     1  UNL1        0.0224
      4 C          66.2109   92.5329   15.5433 C.3     1  UNL1        0.0065
      5 C          66.6333   93.4554   14.4386 C.3     1  UNL1        0.0277
      6 C          66.1130   93.2468   13.0473 C.ar    1  UNL1       -0.0073
      7 C          66.5353   94.1693   11.9424 C.ar    1  UNL1       -0.0015
      8 C          66.0150   93.9608   10.5511 C.ar    1  UNL1        0.0203
      9 C          65.0724   92.8297   10.2646 C.ar    1  UNL1        0.0985
     10 N          64.6500   91.9072   11.3694 N.ar    1  UNL1       -0.2471
     11 C          65.1703   92.1157   12.7608 C.ar    1  UNL1        0.0695
     12 C          64.2940   88.6452   13.6385 C.3     1  UNL1        0.0725
     13 C          64.2255   87.8817   14.9278 C.3     1  UNL1        0.0188
     14 C          64.5566   86.4189   14.9517 C.3     1  UNL1        0.0185
     15 C          63.8361   85.5022   15.8952 C.3     1  UNL1        0.0689
     16 N          62.4822   84.9669   15.5336 N.3     1  UNL1       -0.2937
     17 H          61.8580   85.1985   16.3064 H       1  UNL1        0.1236
     18 C          62.3038   83.5036   15.2565 C.3     1  UNL1        0.0972
     19 C          63.1745   83.3387   11.3881 C.ar    1  UNL1        0.0204
     20 C          63.2445   81.8554   11.1763 C.ar    1  UNL1        0.0989
     21 N          63.0009   80.9215   12.3245 N.ar    1  UNL1       -0.2426
     22 C          62.6874   81.4709   13.6846 C.ar    1  UNL1        0.0959
     23 C          62.6173   82.9542   13.8964 C.ar    1  UNL1        0.0128
     24 C          62.8609   83.8881   12.7481 C.ar    1  UNL1        0.0002
     25 C          62.3741   90.3480   13.2331 C.3     1  UNL1        0.0886
     26 C          61.7625   89.7376   12.0069 C.3     1  UNL1        0.0748
     27 C          62.2949   88.4428   11.4684 C.3     1  UNL1        0.0432
     28 C          61.6834   87.8324   10.2422 C.ar    1  UNL1       -0.0234
     29 C          62.2158   86.5376    9.7038 C.ar    1  UNL1       -0.0045
     30 C          61.6042   85.9272    8.4776 C.ar    1  UNL1       -0.0003
     31 C          60.4602   86.6117    7.7900 C.ar    1  UNL1       -0.0003
     32 C          59.9278   87.9065    8.3284 C.ar    1  UNL1       -0.0032
     33 C          60.5394   88.5168    9.5546 C.ar    1  UNL1       -0.0103
     34 C          60.0070   89.8117   10.0931 C.3     1  UNL1        0.0953
     35 N          60.6186   90.4220   11.3192 N.3     1  UNL1       -0.2934
     36 H          59.8715   90.5106   12.0080 H       1  UNL1        0.1236
@<TRIPOS>BOND
     1    19    20   ar
     2    20    21   ar
     3    21    22   ar
     4    22    23   ar
     5    23    18    1
     6    18    16    1
     7    16    15    1
     8    15    14    1
     9    14    13    1
    10    13    12    1
    11    12     1    1
    12     1    25    1
    13    26    25    1
    14    26    27    1
    15    27    28    1
    16    28    29   ar
    17    29    30   ar
    18    30    31   ar
    19    31    32   ar
    20    32    33   ar
    21    33    34    1
    22    34    35    1
    23     2     1    1
    24     2     3    1
    25     3     4    1
    26     4     5    1
    27     5     6    1
    28     6     7   ar
    29     7     8   ar
    30     8     9   ar
    31     9    10   ar
    32    10    11   ar
    33    23    24   ar
    34    24    19   ar
    35    35    26    1
    36    11     2    1
    37    33    28   ar
    38    11     6   ar
    39    16    17    1
    40    35    36    1
@<TRIPOS>MOLECULE
*****
 36 40 0 0 0
SMALL
GASTEIGER

@<TRIPOS>ATOM
      1 N          60.9961   87.4866   10.2975 N.3     1  UNL1       -0.2679
      2 C          61.8829   86.3339    9.9302 C.3     1  UNL1        0.0978
      3 C          62.2422   86.0919    8.4941 C.3     1  UNL1        0.0224
      4 C          63.1290   84.9392    8.1268 C.3     1  UNL1        0.0065
      5 C          63.6564   84.0284    9.1955 C.3     1  UNL1        0.0277
      6 C          63.2970   84.2704   10.6316 C.ar    1  UNL1       -0.0073
      7 C          63.8245   83.3595   11.7004 C.ar    1  UNL1       -0.0015
      8 C          63.4651   83.6015   13.1365 C.ar    1  UNL1        0.0203
      9 C          62.5784   84.7542   13.5038 C.ar    1  UNL1        0.0985
     10 N          62.0510   85.6650   12.4351 N.ar    1  UNL1       -0.2471
     11 C          62.4103   85.4231   10.9989 C.ar    1  UNL1        0.0695
     12 C          59.8273   87.8408    9.4267 C.3     1  UNL1        0.0725
     13 C          59.9575   88.9292    8.4027 C.3     1  UNL1        0.0188
     14 C          59.3830   88.7402    7.0301 C.3     1  UNL1        0.0185
     15 C          58.9975   89.9338    6.2075 C.3     1  UNL1        0.0689
     16 N          60.0589   90.7721    5.5588 N.3     1  UNL1       -0.2937
     17 H          60.5328   91.2780    6.3071 H       1  UNL1        0.1236
     18 C          59.6825   91.7873    4.5207 C.3     1  UNL1        0.0972
     19 C          63.1058   92.1457    2.5451 C.ar    1  UNL1        0.0204
     20 C          62.7454   93.2019    1.5428 C.ar    1  UNL1        0.0989
     21 N          61.3641   93.7865    1.5332 N.ar    1  UNL1       -0.2426
     22 C          60.3431   93.3150    2.5258 C.ar    1  UNL1        0.0959
     23 C          60.7035   92.2588    3.5280 C.ar    1  UNL1        0.0128
     24 C          62.0848   91.6742    3.5377 C.ar    1  UNL1        0.0002
     25 C          61.2782   88.2851   11.5355 C.3     1  UNL1        0.0886
     26 C          62.2807   89.4002   11.4966 C.3     1  UNL1        0.0748
     27 C          63.1453   89.6736   12.6914 C.3     1  UNL1        0.0432
     28 C          64.1478   90.7888   12.6525 C.ar    1  UNL1       -0.0234
     29 C          65.0124   91.0622   13.8473 C.ar    1  UNL1       -0.0045
     30 C          66.0148   92.1773   13.8083 C.ar    1  UNL1       -0.0003
     31 C          66.1527   93.0191   12.5745 C.ar    1  UNL1       -0.0003
     32 C          65.2881   92.7457   11.3796 C.ar    1  UNL1       -0.0032
     33 C          64.2857   91.6306   11.4186 C.ar    1  UNL1       -0.0103
     34 C          63.4210   91.3571   10.2237 C.3     1  UNL1        0.0953
     35 N          62.4186   90.2420   10.2627 N.3     1  UNL1       -0.2934
     36 H          62.6532   89.6083    9.4986 H       1  UNL1        0.1236
@<TRIPOS>BOND
     1    19    20   ar
     2    20    21   ar
     3    21    22   ar
     4    22    23   ar
     5    23    18    1
     6    18    16    1
     7    16    15    1
     8    15    14    1
     9    14    13    1
    10    13    12    1
    11    12     1    1
    12     1    25    1
    13    26    25    1
    14    26    27    1
    15    27    28    1
    16    28    29   ar
    17    29    30   ar
    18    30    31   ar
    19    31    32   ar
    20    32    33   ar
    21    33    34    1
    22    34    35    1
    23     2     1    1
    24     2     3    1
    25     3     4    1
    26     4     5    1
    27     5     6    1
    28     6     7   ar
    29     7     8   ar
    30     8     9   ar
    31     9    10   ar
    32    10    11   ar
    33    23    24   ar
    34    24    19   ar
    35    35    26    1
    36    11     2    1
    37    33    28   ar
    38    11     6   ar
    39    16    17    1
    40    35    36    1
@<TRIPOS>MOLECULE
*****
 36 40 0 0 0
SMALL
GASTEIGER

@<TRIPOS>ATOM
      1 N          63.2243   85.4108   12.9473 N.3     1  UNL1       -0.2679
      2 C          63.3860   84.1815   12.1030 C.3     1  UNL1        0.0978
      3 C          64.0135   84.2820   10.7443 C.3     1  UNL1        0.0224
      4 C          64.1752   83.0528    9.9000 C.3     1  UNL1        0.0065
      5 C          63.7093   81.7230   10.4144 C.3     1  UNL1        0.0277
      6 C          63.0818   81.6225   11.7731 C.ar    1  UNL1       -0.0073
      7 C          62.6159   80.2927   12.2876 C.ar    1  UNL1       -0.0015
      8 C          61.9884   80.1922   13.6463 C.ar    1  UNL1        0.0203
      9 C          61.8267   81.4214   14.4906 C.ar    1  UNL1        0.0985
     10 N          62.2926   82.7512   13.9762 N.ar    1  UNL1       -0.2471
     11 C          62.9201   82.8517   12.6174 C.ar    1  UNL1        0.0695
     12 C          64.3806   85.9249   13.7526 C.3     1  UNL1        0.0725
     13 C          64.1664   87.0135   14.7621 C.3     1  UNL1        0.0188
     14 C          64.3423   88.4494   14.3655 C.3     1  UNL1        0.0185
     15 C          63.5382   89.5187   15.0436 C.3     1  UNL1        0.0689
     16 N          63.4981   90.9043   14.4702 N.3     1  UNL1       -0.2937
     17 H          62.6312   90.9777   13.9380 H       1  UNL1        0.1236
     18 C          64.6008   91.3751   13.5689 C.3     1  UNL1        0.0972
     19 C          67.2199   92.8163   16.1792 C.ar    1  UNL1        0.0204
     20 C          68.4546   92.8900   15.3307 C.ar    1  UNL1        0.0989
     21 N          68.4047   92.4588   13.8948 N.ar    1  UNL1       -0.2426
     22 C          67.1201   91.9538   13.3076 C.ar    1  UNL1        0.0959
     23 C          65.8855   91.8801   14.1562 C.ar    1  UNL1        0.0128
     24 C          65.9353   92.3113   15.5920 C.ar    1  UNL1        0.0002
     25 C          61.9064   86.1259   12.9862 C.3     1  UNL1        0.0886
     26 C          61.4740   86.9657   11.8209 C.3     1  UNL1        0.0748
     27 C          60.8202   86.3222   10.6342 C.3     1  UNL1        0.0432
     28 C          60.3879   87.1620    9.4689 C.ar    1  UNL1       -0.0234
     29 C          59.7341   86.5185    8.2822 C.ar    1  UNL1       -0.0045
     30 C          59.3018   87.3583    7.1170 C.ar    1  UNL1       -0.0003
     31 C          59.5233   88.8417    7.1386 C.ar    1  UNL1       -0.0003
     32 C          60.1771   89.4853    8.3253 C.ar    1  UNL1       -0.0032
     33 C          60.6094   88.6454    9.4905 C.ar    1  UNL1       -0.0103
     34 C          61.2632   89.2890   10.6773 C.3     1  UNL1        0.0953
     35 N          61.6955   88.4491   11.8424 N.3     1  UNL1       -0.2934
     36 H          61.2057   88.8081   12.6620 H       1  UNL1        0.1236
@<TRIPOS>BOND
     1    19    20   ar
     2    20    21   ar
     3    21    22   ar
     4    22    23   ar
     5    23    18    1
     6    18    16    1
     7    16    15    1
     8    15    14    1
     9    14    13    1
    10    13    12    1
    11    12     1    1
    12     1    25    1
    13    26    25    1
    14    26    27    1
    15    27    28    1
    16    28    29   ar
    17    29    30   ar
    18    30    31   ar
    19    31    32   ar
    20    32    33   ar
    21    33    34    1
    22    34    35    1
    23     2     1    1
    24     2     3    1
    25     3     4    1
    26     4     5    1
    27     5     6    1
    28     6     7   ar
    29     7     8   ar
    30     8     9   ar
    31     9    10   ar
    32    10    11   ar
    33    23    24   ar
    34    24    19   ar
    35    35    26    1
    36    11     2    1
    37    33    28   ar
    38    11     6   ar
    39    16    17    1
    40    35    36    1
@<TRIPOS>MOLECULE
*****
 36 40 0 0 0
SMALL
GASTEIGER

@<TRIPOS>ATOM
      1 N          61.5020   87.7882   10.9627 N.3     1  UNL1       -0.2679
      2 C          60.7512   87.3555    9.7383 C.3     1  UNL1        0.0978
      3 C          59.3735   87.8876    9.4761 C.3     1  UNL1        0.0224
      4 C          58.6228   87.4549    8.2518 C.3     1  UNL1        0.0065
      5 C          59.2497   86.4900    7.2895 C.3     1  UNL1        0.0277
      6 C          60.6274   85.9579    7.5516 C.ar    1  UNL1       -0.0073
      7 C          61.2544   84.9930    6.5893 C.ar    1  UNL1       -0.0015
      8 C          62.6321   84.4609    6.8515 C.ar    1  UNL1        0.0203
      9 C          63.3829   84.8936    8.0759 C.ar    1  UNL1        0.0985
     10 N          62.7559   85.8584    9.0381 N.ar    1  UNL1       -0.2471
     11 C          61.3782   86.3906    8.7760 C.ar    1  UNL1        0.0695
     12 C          62.5135   86.8720   11.5851 C.3     1  UNL1        0.0725
     13 C          62.0772   85.5646   12.1772 C.3     1  UNL1        0.0188
     14 C          63.0449   84.4222   12.2679 C.3     1  UNL1        0.0185
     15 C          62.8418   83.3470   13.2938 C.3     1  UNL1        0.0689
     16 N          63.7250   83.2895   14.5050 N.3     1  UNL1       -0.2937
     17 H          63.1129   83.1545   15.3096 H       1  UNL1        0.1236
     18 C          64.6236   84.4447   14.8334 C.3     1  UNL1        0.0972
     19 C          62.7600   86.6801   17.5317 C.ar    1  UNL1        0.0204
     20 C          62.9680   88.0500   16.9573 C.ar    1  UNL1        0.0989
     21 N          63.7277   88.2182   15.6749 N.ar    1  UNL1       -0.2426
     22 C          64.2796   87.0165   14.9670 C.ar    1  UNL1        0.0959
     23 C          64.0717   85.6465   15.5414 C.ar    1  UNL1        0.0128
     24 C          63.3119   85.4783   16.8237 C.ar    1  UNL1        0.0002
     25 C          61.2412   89.1371   11.5646 C.3     1  UNL1        0.0886
     26 C          62.3879   89.9857   12.0285 C.3     1  UNL1        0.0748
     27 C          63.1784   90.7857   11.0361 C.3     1  UNL1        0.0432
     28 C          64.3251   91.6344   11.4999 C.ar    1  UNL1       -0.0234
     29 C          65.1156   92.4343   10.5075 C.ar    1  UNL1       -0.0045
     30 C          66.2622   93.2829   10.9714 C.ar    1  UNL1       -0.0003
     31 C          66.6182   93.3316   12.4277 C.ar    1  UNL1       -0.0003
     32 C          65.8276   92.5316   13.4202 C.ar    1  UNL1       -0.0032
     33 C          64.6811   91.6830   12.9563 C.ar    1  UNL1       -0.0103
     34 C          63.8904   90.8829   13.9487 C.3     1  UNL1        0.0953
     35 N          62.7439   90.0344   13.4848 N.3     1  UNL1       -0.2934
     36 H          61.9149   90.3634   13.9798 H       1  UNL1        0.1236
@<TRIPOS>BOND
     1    19    20   ar
     2    20    21   ar
     3    21    22   ar
     4    22    23   ar
     5    23    18    1
     6    18    16    1
     7    16    15    1
     8    15    14    1
     9    14    13    1
    10    13    12    1
    11    12     1    1
    12     1    25    1
    13    26    25    1
    14    26    27    1
    15    27    28    1
    16    28    29   ar
    17    29    30   ar
    18    30    31   ar
    19    31    32   ar
    20    32    33   ar
    21    33    34    1
    22    34    35    1
    23     2     1    1
    24     2     3    1
    25     3     4    1
    26     4     5    1
    27     5     6    1
    28     6     7   ar
    29     7     8   ar
    30     8     9   ar
    31     9    10   ar
    32    10    11   ar
    33    23    24   ar
    34    24    19   ar
    35    35    26    1
    36    11     2    1
    37    33    28   ar
    38    11     6   ar
    39    16    17    1
    40    35    36    1
@<TRIPOS>MOLECULE
*****
 36 40 0 0 0
SMALL
GASTEIGER

@<TRIPOS>ATOM
      1 N          63.2634   88.2421   12.9084 N.3     1  UNL1       -0.2679
      2 C          62.5437   87.4870   11.8304 C.3     1  UNL1        0.0978
      3 C          62.7038   85.9996   11.7218 C.3     1  UNL1        0.0224
      4 C          61.9841   85.2445   10.6438 C.3     1  UNL1        0.0065
      5 C          61.1043   85.9769    9.6746 C.3     1  UNL1        0.0277
      6 C          60.9442   87.4643    9.7833 C.ar    1  UNL1       -0.0073
      7 C          60.0643   88.1967    8.8140 C.ar    1  UNL1       -0.0015
      8 C          59.9042   89.6842    8.9226 C.ar    1  UNL1        0.0203
      9 C          60.6238   90.4392   10.0006 C.ar    1  UNL1        0.0985
     10 N          61.5037   89.7069   10.9698 N.ar    1  UNL1       -0.2471
     11 C          61.6639   88.2194   10.8612 C.ar    1  UNL1        0.0695
     12 C          64.2035   87.5218   13.8289 C.3     1  UNL1        0.0725
     13 C          63.8339   87.3171   15.2682 C.3     1  UNL1        0.0188
     14 C          64.0402   85.9782   15.9123 C.3     1  UNL1        0.0185
     15 C          62.8575   85.1276   16.2693 C.3     1  UNL1        0.0689
     16 N          62.0687   84.4484   15.1891 N.3     1  UNL1       -0.2937
     17 H          61.0893   84.4862   15.4717 H       1  UNL1        0.1236
     18 C          62.3613   83.0215   14.8311 C.3     1  UNL1        0.0972
     19 C          64.7710   83.0338   11.6777 C.ar    1  UNL1        0.0204
     20 C          64.0941   82.0233   10.7998 C.ar    1  UNL1        0.0989
     21 N          62.8396   81.3456   11.2656 N.ar    1  UNL1       -0.2426
     22 C          62.2620   81.6783   12.6094 C.ar    1  UNL1        0.0959
     23 C          62.9389   82.6887   13.4873 C.ar    1  UNL1        0.0128
     24 C          64.1934   83.3665   13.0214 C.ar    1  UNL1        0.0002
     25 C          63.0430   89.7174   13.0658 C.3     1  UNL1        0.0886
     26 C          63.9865   90.5319   13.9004 C.3     1  UNL1        0.0748
     27 C          65.3802   90.7973   13.4137 C.3     1  UNL1        0.0432
     28 C          66.3237   91.6118   14.2483 C.ar    1  UNL1       -0.0234
     29 C          67.7175   91.8772   13.7616 C.ar    1  UNL1       -0.0045
     30 C          68.6609   92.6917   14.5962 C.ar    1  UNL1       -0.0003
     31 C          68.2106   93.2407   15.9175 C.ar    1  UNL1       -0.0003
     32 C          66.8168   92.9752   16.4042 C.ar    1  UNL1       -0.0032
     33 C          65.8734   92.1608   15.5696 C.ar    1  UNL1       -0.0103
     34 C          64.4795   91.8953   16.0562 C.3     1  UNL1        0.0953
     35 N          63.5361   91.0809   15.2216 N.3     1  UNL1       -0.2934
     36 H          62.7248   91.6701   15.0346 H       1  UNL1        0.1236
@<TRIPOS>BOND
     1    19    20   ar
     2    20    21   ar
     3    21    22   ar
     4    22    23   ar
     5    23    18    1
     6    18    16    1
     7    16    15    1
     8    15    14    1
     9    14    13    1
    10    13    12    1
    11    12     1    1
    12     1    25    1
    13    26    25    1
    14    26    27    1
    15    27    28    1
    16    28    29   ar
    17    29    30   ar
    18    30    31   ar
    19    31    32   ar
    20    32    33   ar
    21    33    34    1
    22    34    35    1
    23     2     1    1
    24     2     3    1
    25     3     4    1
    26     4     5    1
    27     5     6    1
    28     6     7   ar
    29     7     8   ar
    30     8     9   ar
    31     9    10   ar
    32    10    11   ar
    33    23    24   ar
    34    24    19   ar
    35    35    26    1
    36    11     2    1
    37    33    28   ar
    38    11     6   ar
    39    16    17    1
    40    35    36    1
@<TRIPOS>MOLECULE
*****
 36 40 0 0 0
SMALL
GASTEIGER

@<TRIPOS>ATOM
      1 N          64.0461   89.3172   14.5657 N.3     1  UNL1       -0.2679
      2 C          63.6189   88.2982   15.5802 C.3     1  UNL1        0.0978
      3 C          63.1603   88.7389   16.9387 C.3     1  UNL1        0.0224
      4 C          62.7332   87.7199   17.9531 C.3     1  UNL1        0.0065
      5 C          62.7645   86.2602   17.6091 C.3     1  UNL1        0.0277
      6 C          63.2231   85.8196   16.2507 C.ar    1  UNL1       -0.0073
      7 C          63.2545   84.3598   15.9066 C.ar    1  UNL1       -0.0015
      8 C          63.7130   83.9192   14.5481 C.ar    1  UNL1        0.0203
      9 C          64.1402   84.9382   13.5337 C.ar    1  UNL1        0.0985
     10 N          64.1088   86.3978   13.8777 N.ar    1  UNL1       -0.2471
     11 C          63.6503   86.8385   15.2362 C.ar    1  UNL1        0.0695
     12 C          63.0920   89.7541   13.4939 C.3     1  UNL1        0.0725
     13 C          63.0917   89.0627   12.1627 C.3     1  UNL1        0.0188
     14 C          62.5422   89.7617   10.9546 C.3     1  UNL1        0.0185
     15 C          61.0616   89.9517   10.8069 C.3     1  UNL1        0.0689
     16 N          60.3149   89.2188    9.7320 N.3     1  UNL1       -0.2937
     17 H          59.4017   89.6657    9.6508 H       1  UNL1        0.1236
     18 C          60.0659   87.7454    9.8631 C.3     1  UNL1        0.0972
     19 C          62.8870   85.4301    8.3040 C.ar    1  UNL1        0.0204
     20 C          62.1622   84.8566    7.1226 C.ar    1  UNL1        0.0989
     21 N          60.7387   85.2461    6.8546 N.ar    1  UNL1       -0.2426
     22 C          60.0399   86.2091    7.7681 C.ar    1  UNL1        0.0959
     23 C          60.7646   86.7825    8.9495 C.ar    1  UNL1        0.0128
     24 C          62.1882   86.3930    9.2175 C.ar    1  UNL1        0.0002
     25 C          65.4273   89.8993   14.6230 C.3     1  UNL1        0.0886
     26 C          65.6931   91.2582   14.0461 C.3     1  UNL1        0.0748
     27 C          65.4265   91.5216   12.5937 C.3     1  UNL1        0.0432
     28 C          65.6923   92.8805   12.0167 C.ar    1  UNL1       -0.0234
     29 C          65.4257   93.1439   10.5643 C.ar    1  UNL1       -0.0045
     30 C          65.6915   94.5027    9.9875 C.ar    1  UNL1       -0.0003
     31 C          66.2239   95.5982   10.8630 C.ar    1  UNL1       -0.0003
     32 C          66.4905   95.3348   12.3154 C.ar    1  UNL1       -0.0032
     33 C          66.2247   93.9759   12.8922 C.ar    1  UNL1       -0.0103
     34 C          66.4913   93.7125   14.3447 C.3     1  UNL1        0.0953
     35 N          66.2255   92.3536   14.9216 N.3     1  UNL1       -0.2934
     36 H          65.5515   92.4810   15.6766 H       1  UNL1        0.1236
@<TRIPOS>BOND
     1    19    20   ar
     2    20    21   ar
     3    21    22   ar
     4    22    23   ar
     5    23    18    1
     6    18    16    1
     7    16    15    1
     8    15    14    1
     9    14    13    1
    10    13    12    1
    11    12     1    1
    12     1    25    1
    13    26    25    1
    14    26    27    1
    15    27    28    1
    16    28    29   ar
    17    29    30   ar
    18    30    31   ar
    19    31    32   ar
    20    32    33   ar
    21    33    34    1
    22    34    35    1
    23     2     1    1
    24     2     3    1
    25     3     4    1
    26     4     5    1
    27     5     6    1
    28     6     7   ar
    29     7     8   ar
    30     8     9   ar
    31     9    10   ar
    32    10    11   ar
    33    23    24   ar
    34    24    19   ar
    35    35    26    1
    36    11     2    1
    37    33    28   ar
    38    11     6   ar
    39    16    17    1
    40    35    36    1
