@<TRIPOS>MOLECULE
*****
 38 41 0 0 0
SMALL
GASTEIGER

@<TRIPOS>ATOM
      1 C          62.8672   86.8876   12.5330 C.ar    1  UNL1        0.0502
      2 C          63.6597   87.4823   13.6591 C.ar    1  UNL1        0.0143
      3 C          64.1972   88.8778   13.5428 C.ar    1  UNL1       -0.0030
      4 C          63.9422   89.6787   12.3004 C.ar    1  UNL1       -0.0223
      5 C          63.1497   89.0840   11.1743 C.ar    1  UNL1       -0.0034
      6 C          62.6122   87.6885   11.2906 C.ar    1  UNL1        0.0089
      7 C          64.4798   91.0742   12.1841 C.3     1  UNL1        0.0257
      8 C          64.4050   91.8000   10.8736 C.3     1  UNL1        0.0259
      9 C          64.9426   93.1956   10.7573 C.3     1  UNL1        0.0938
     10 N          65.5549   93.8653   11.9517 N.am    1  UNL1       -0.2775
     11 C          66.0924   95.2608   11.8355 C.2     1  UNL1        0.2551
     12 O          66.7047   95.9306   13.0299 O.2     1  UNL1       -0.2722
     13 C          65.6296   93.1395   13.2623 C.3     1  UNL1        0.0938
     14 C          65.0920   91.7440   13.3785 C.3     1  UNL1        0.0259
     15 C          66.0177   95.9866   10.5249 C.3     1  UNL1        0.2166
     16 O          64.7952   96.7833   10.1774 O.3     1  UNL1       -0.3740
     17 H          64.9094   97.1855    9.3021 H       1  UNL1        0.2110
     18 C          67.1655   95.9157    9.5618 C.3     1  UNL1        0.1759
     19 O          68.0416   94.6987    9.5273 O.3     1  UNL1       -0.3791
     20 H          68.5270   94.6259   10.3640 H       1  UNL1        0.2106
     21 C          61.8196   87.0937   10.1644 C.2     1  UNL1       -0.0253
     22 C          60.3755   87.4593    9.9886 C.2     1  UNL1       -0.0303
     23 C          59.5829   86.8646    8.8625 C.3     1  UNL1        0.0257
     24 C          60.2345   85.9043    7.9121 C.3     1  UNL1        0.0050
     25 C          61.6786   85.5387    8.0878 C.3     1  UNL1        0.0050
     26 C          62.4711   86.1334    9.2140 C.3     1  UNL1        0.0261
     27 C          63.1918   84.4006   13.2107 C.2     1  UNL1        0.2837
     28 O          64.5916   84.7047   13.6559 O.2     1  UNL1       -0.2665
     29 N          62.3296   85.4920   12.6492 N.am    1  UNL1       -0.2779
     30 H          61.4109   85.2925   12.3570 H       1  UNL1        0.1553
     31 C          61.1986   81.1254   13.8152 C.ar    1  UNL1        0.1469
     32 C          62.4558   80.5896   13.1966 C.ar    1  UNL1        0.1282
     33 N          63.3554   81.7513   12.8949 N.ar    1  UNL1       -0.2205
     34 C          62.6543   83.0051   13.3270 C.ar    1  UNL1        0.1958
     35 N          61.3214   82.6182   13.8957 N.ar    1  UNL1       -0.3257
     36 H          60.6457   83.2357   14.2583 H       1  UNL1        0.1682
     37 N          58.8510   79.4972   14.7305 N.1     1  UNL1       -0.1893
     38 C          60.0248   80.3113   14.2728 C.1     1  UNL1        0.1194
@<TRIPOS>BOND
     1    37    38    3
     2    38    31    1
     3    31    32   ar
     4    32    33   ar
     5    33    34   ar
     6    34    27    1
     7    27    28    2
     8    27    29   am
     9    29     1    1
    10     1     2   ar
    11     2     3   ar
    12     3     4   ar
    13     4     7    1
    14     7     8    1
    15     8     9    1
    16     9    10    1
    17    10    11   am
    18    11    12    2
    19    11    15    1
    20    15    16    1
    21    15    18    1
    22    18    19    1
    23    10    13    1
    24    13    14    1
    25     4     5   ar
    26     5     6   ar
    27     6    21    1
    28    21    22    2
    29    22    23    1
    30    23    24    1
    31    24    25    1
    32    25    26    1
    33    34    35   ar
    34    35    31   ar
    35     6     1   ar
    36    26    21    1
    37    14     7    1
    38    29    30    1
    39    16    17    1
    40    19    20    1
    41    35    36    1
