@<TRIPOS>MOLECULE
*****
 60 66 0 0 0
SMALL
GASTEIGER

@<TRIPOS>ATOM
      1 N          59.0033   95.9074   -5.6098 N.3     1  UNL1       -0.1862
      2 C          60.0868   95.8642   -6.6461 C.3     1  UNL1        0.1775
      3 C          61.5269   95.8740   -6.2264 C.2     1  UNL1        0.2452
      4 O          62.6105   95.8309   -7.2628 O.2     1  UNL1       -0.2732
      5 N          61.8834   95.9268   -4.7703 N.am    1  UNL1       -0.2541
      6 C          63.3234   95.9365   -4.3506 C.3     1  UNL1        0.1577
      7 C          63.6799   95.9893   -2.8946 C.2     1  UNL1        0.2445
      8 O          65.1200   95.9990   -2.4749 O.2     1  UNL1       -0.2731
      9 N          62.5963   96.0324   -1.8582 N.am    1  UNL1       -0.2705
     10 C          61.1563   96.0227   -2.2779 C.3     1  UNL1        0.1359
     11 C          60.7998   95.9699   -3.7340 C.3     1  UNL1        0.1908
     12 N          59.3598   95.9602   -4.1537 N.am    1  UNL1       -0.1863
     13 C          58.2762   96.0033   -3.1173 C.2     1  UNL1        0.3191
     14 O          58.6327   96.0561   -1.6613 O.2     1  UNL1       -0.2512
     15 N          56.8361   95.9936   -3.5370 N.am    1  UNL1       -0.2836
     16 H          56.6022   95.9589   -4.4927 H       1  UNL1        0.1513
     17 C          57.5632   95.8976   -6.0295 C.3     1  UNL1        0.1188
     18 C          55.9360   93.9581   -6.6128 C.2     1  UNL1       -0.0034
     19 C          57.0706   94.8615   -6.9957 C.2     1  UNL1       -0.0071
     20 C          64.4070   95.8934   -5.3869 C.3     1  UNL1        0.0556
     21 C          64.8732   94.5752   -5.9303 C.ar    1  UNL1       -0.0198
     22 C          65.9080   94.5350   -7.0153 C.ar    1  UNL1       -0.0011
     23 C          66.3742   93.2169   -7.5587 C.ar    1  UNL1        0.0363
     24 C          65.8055   91.9390   -7.0169 C.ar    1  UNL1        0.1337
     25 O          66.2717   90.6208   -7.5602 O.3     1  UNL1       -0.5055
     26 C          64.7706   91.9792   -5.9318 C.ar    1  UNL1        0.0363
     27 C          64.3044   93.2973   -5.3884 C.ar    1  UNL1       -0.0011
     28 H          66.9181   90.5957   -8.2381 H       1  UNL1        0.2922
     29 C          62.9528   96.0852   -0.4021 C.3     1  UNL1        0.1217
     30 C          62.9360   94.8307    0.4202 C.ar    1  UNL1        0.0135
     31 C          64.0699   93.8537    0.3209 C.ar    1  UNL1       -0.0012
     32 C          64.0531   92.5993    1.1432 C.ar    1  UNL1       -0.0002
     33 C          62.9025   92.3219    2.0646 C.ar    1  UNL1        0.0016
     34 C          61.7686   93.2989    2.1638 C.ar    1  UNL1        0.0214
     35 C          60.5091   93.2954    2.9783 C.ar    1  UNL1        0.0719
     36 C          59.7474   94.5477    2.6595 C.ar    1  UNL1        0.0805
     37 N          60.5362   95.3251    1.6480 N.ar    1  UNL1       -0.3241
     38 C          60.1446   96.6429    1.0481 C.3     1  UNL1        0.1305
     39 C          61.7854   94.5533    1.3416 C.ar    1  UNL1        0.0577
     40 C          60.0855   92.2271    3.9425 C.2     1  UNL1        0.2473
     41 O          61.1102   91.3144    4.5483 O.2     1  UNL1       -0.2701
     42 N          58.6373   92.0716    4.3008 N.am    1  UNL1       -0.3008
     43 H          57.9647   92.6706    3.9032 H       1  UNL1        0.1497
     44 C          58.2137   91.0034    5.2649 C.3     1  UNL1        0.0911
     45 C          59.2473   90.1692    5.9618 C.3     1  UNL1        0.0386
     46 C          58.8340   88.9452    6.7240 C.3     1  UNL1        0.0739
     47 N          59.7029   88.4204    7.8284 N.3     1  UNL1       -0.2703
     48 C          60.2928   89.3660    8.8323 C.3     1  UNL1        0.0897
     49 C          61.1617   88.8412    9.9366 C.3     1  UNL1        0.0897
     50 N          61.4407   87.3708   10.0371 N.3     1  UNL1       -0.2691
     51 C          62.3097   86.8460   11.1414 C.3     1  UNL1        0.0897
     52 C          60.8509   86.4253    9.0331 C.3     1  UNL1        0.0897
     53 C          59.9820   86.9501    7.9288 C.3     1  UNL1        0.0897
     54 C          55.7526   96.0367   -2.5007 C.3     1  UNL1        0.1177
     55 C          54.3131   96.0651   -2.9214 C.ar    1  UNL1       -0.0025
     56 C          53.9585   96.1778   -4.3745 C.ar    1  UNL1       -0.0026
     57 C          52.5190   96.2062   -4.7953 C.ar    1  UNL1       -0.0003
     58 C          51.4341   96.1220   -3.7629 C.ar    1  UNL1       -0.0000
     59 C          51.7886   96.0094   -2.3097 C.ar    1  UNL1       -0.0003
     60 C          53.2281   95.9809   -1.8890 C.ar    1  UNL1       -0.0026
@<TRIPOS>BOND
     1    18    19    2
     2    19    17    1
     3    17     1    1
     4     1     2    1
     5     2     3    1
     6     3     4    2
     7     3     5   am
     8     5     6    1
     9     6    20    1
    10    20    21    1
    11    21    22   ar
    12    22    23   ar
    13    23    24   ar
    14    24    25    1
    15    24    26   ar
    16    26    27   ar
    17     6     7    1
    18     7     8    2
    19     7     9   am
    20     9    29    1
    21    29    30    1
    22    30    31   ar
    23    31    32   ar
    24    32    33   ar
    25    33    34   ar
    26    34    35   ar
    27    35    40    1
    28    40    41    2
    29    40    42   am
    30    42    44    1
    31    44    45    1
    32    45    46    1
    33    46    47    1
    34    47    48    1
    35    48    49    1
    36    49    50    1
    37    50    51    1
    38    50    52    1
    39    52    53    1
    40    35    36   ar
    41    36    37   ar
    42    37    38    1
    43    37    39   ar
    44     9    10    1
    45    11    10    1
    46    11    12    1
    47    12    13   am
    48    13    14    2
    49    13    15   am
    50    15    54    1
    51    54    55    1
    52    55    56   ar
    53    56    57   ar
    54    57    58   ar
    55    58    59   ar
    56    59    60   ar
    57    12     1    1
    58    60    55   ar
    59    11     5    1
    60    27    21   ar
    61    39    30   ar
    62    39    34   ar
    63    53    47    1
    64    25    28    1
    65    42    43    1
    66    15    16    1
