@<TRIPOS>MOLECULE
*****
 29 33 0 0 0
SMALL
GASTEIGER

@<TRIPOS>ATOM
      1 C          62.4371   84.9686   11.4639 C.ar    1  UNL1        0.0004
      2 C          61.7546   85.2638   10.1612 C.ar    1  UNL1        0.0031
      3 C          61.6288   86.6804    9.6846 C.ar    1  UNL1        0.0370
      4 C          62.1854   87.8019   10.5106 C.ar    1  UNL1        0.1415
      5 C          62.8679   87.5068   11.8133 C.ar    1  UNL1        0.0699
      6 C          62.9937   86.0901   12.2900 C.ar    1  UNL1        0.0061
      7 C          63.4879   88.4684   12.7833 C.ar    1  UNL1        0.1718
      8 N          64.1454   88.0431   14.0627 N.ar    1  UNL1       -0.1258
      9 N          64.6424   89.2746   14.7601 N.ar    1  UNL1       -0.0913
     10 C          64.2921   90.4610   13.9118 C.ar    1  UNL1        0.3249
     11 N          63.5786   89.9628   12.6900 N.ar    1  UNL1       -0.2613
     12 C          63.0716   90.8645   11.6038 C.3     1  UNL1        0.1592
     13 C          62.3488   90.4947   10.3426 C.3     1  UNL1        0.2299
     14 O          61.9544   89.1317    9.8561 O.3     1  UNL1       -0.4733
     15 C          63.0212   79.9091   10.4340 C.3     1  UNL1        0.0521
     16 C          62.8549   81.0222   11.4256 C.ar    1  UNL1        0.0594
     17 C          62.7291   82.4389   10.9489 C.ar    1  UNL1        0.0147
     18 C          62.5629   83.5519   11.9406 C.ar    1  UNL1        0.0027
     19 C          62.5225   83.2483   13.4090 C.ar    1  UNL1        0.0207
     20 C          62.6483   81.8317   13.8857 C.ar    1  UNL1        0.0984
     21 N          62.8146   80.7186   12.8941 N.ar    1  UNL1       -0.2481
     22 O          64.6010   91.8940   14.2295 O.3     1  UNL1       -0.4216
     23 C          65.9849   92.2865   14.6547 C.ar    1  UNL1        0.1591
     24 C          66.2781   92.5513   16.1018 C.ar    1  UNL1        0.0385
     25 C          67.6621   92.9438   16.5269 C.ar    1  UNL1        0.0032
     26 C          68.7527   93.0715   15.5050 C.ar    1  UNL1        0.0011
     27 C          68.4595   92.8067   14.0580 C.ar    1  UNL1        0.0145
     28 C          67.0755   92.4142   13.6329 C.ar    1  UNL1        0.0922
     29 CL         66.7823   92.1494   12.1858 Cl      1  UNL1       -0.0791
@<TRIPOS>BOND
     1    15    16    1
     2    16    17   ar
     3    17    18   ar
     4    18     1    1
     5     1     2   ar
     6     2     3   ar
     7     3     4   ar
     8     4     5   ar
     9     5     6   ar
    10     5     7    1
    11     7     8   ar
    12     8     9   ar
    13     9    10   ar
    14    10    22    1
    15    22    23    1
    16    23    24   ar
    17    24    25   ar
    18    25    26   ar
    19    26    27   ar
    20    27    28   ar
    21    28    29    1
    22    10    11   ar
    23    11    12    1
    24    12    13    1
    25    13    14    1
    26    18    19   ar
    27    19    20   ar
    28    20    21   ar
    29    21    16   ar
    30     6     1   ar
    31    11     7   ar
    32    14     4    1
    33    28    23   ar
@<TRIPOS>MOLECULE
*****
 29 33 0 0 0
SMALL
GASTEIGER

@<TRIPOS>ATOM
      1 C          64.1394   91.1796   11.8094 C.ar    1  UNL1        0.0004
      2 C          63.3442   91.5001   10.5785 C.ar    1  UNL1        0.0031
      3 C          62.4403   90.4641    9.9788 C.ar    1  UNL1        0.0370
      4 C          62.3316   89.1077   10.6099 C.ar    1  UNL1        0.1415
      5 C          63.1267   88.7872   11.8407 C.ar    1  UNL1        0.0699
      6 C          64.0306   89.8232   12.4405 C.ar    1  UNL1        0.0061
      7 C          63.1654   87.5076   12.6223 C.ar    1  UNL1        0.1718
      8 N          64.0097   87.3121   13.8466 N.ar    1  UNL1       -0.1258
      9 N          63.7846   85.9161   14.3470 N.ar    1  UNL1       -0.0913
     10 C          62.8011   85.2487   13.4320 C.ar    1  UNL1        0.3249
     11 N          62.4184   86.2322   12.3660 N.ar    1  UNL1       -0.2613
     12 C          61.4483   85.9217   11.2649 C.3     1  UNL1        0.1592
     13 C          60.9856   86.8096   10.1481 C.3     1  UNL1        0.2299
     14 O          61.3787   88.2276    9.8566 O.3     1  UNL1       -0.4733
     15 C          66.9399   92.9289   15.8215 C.3     1  UNL1        0.0521
     16 C          66.4436   93.0902   14.4153 C.ar    1  UNL1        0.0594
     17 C          65.5396   92.0542   13.8155 C.ar    1  UNL1        0.0147
     18 C          65.0433   92.2156   12.4092 C.ar    1  UNL1        0.0027
     19 C          65.4509   93.4128   11.6027 C.ar    1  UNL1        0.0207
     20 C          66.3548   94.4488   12.2024 C.ar    1  UNL1        0.0984
     21 N          66.8512   94.2875   13.6088 N.ar    1  UNL1       -0.2481
     22 O          62.2901   83.8442   13.5604 O.3     1  UNL1       -0.4216
     23 C          62.6873   82.8065   12.5527 C.ar    1  UNL1        0.1591
     24 C          63.4918   83.1990   11.3492 C.ar    1  UNL1        0.0385
     25 C          63.8890   82.1612   10.3415 C.ar    1  UNL1        0.0032
     26 C          63.4815   80.7310   10.5376 C.ar    1  UNL1        0.0011
     27 C          62.6770   80.3384   11.7411 C.ar    1  UNL1        0.0145
     28 C          62.2798   81.3763   12.7488 C.ar    1  UNL1        0.0922
     29 CL         61.4753   80.9838   13.9523 Cl      1  UNL1       -0.0791
@<TRIPOS>BOND
     1    15    16    1
     2    16    17   ar
     3    17    18   ar
     4    18     1    1
     5     1     2   ar
     6     2     3   ar
     7     3     4   ar
     8     4     5   ar
     9     5     6   ar
    10     5     7    1
    11     7     8   ar
    12     8     9   ar
    13     9    10   ar
    14    10    22    1
    15    22    23    1
    16    23    24   ar
    17    24    25   ar
    18    25    26   ar
    19    26    27   ar
    20    27    28   ar
    21    28    29    1
    22    10    11   ar
    23    11    12    1
    24    12    13    1
    25    13    14    1
    26    18    19   ar
    27    19    20   ar
    28    20    21   ar
    29    21    16   ar
    30     6     1   ar
    31    11     7   ar
    32    14     4    1
    33    28    23   ar
@<TRIPOS>MOLECULE
*****
 29 33 0 0 0
SMALL
GASTEIGER

@<TRIPOS>ATOM
      1 C          64.1363   90.7494   13.2927 C.ar    1  UNL1        0.0004
      2 C          63.5622   91.5998   12.1985 C.ar    1  UNL1        0.0031
      3 C          62.8099   90.9612   11.0689 C.ar    1  UNL1        0.0370
      4 C          62.6316   89.4722   11.0334 C.ar    1  UNL1        0.1415
      5 C          63.2057   88.6219   12.1276 C.ar    1  UNL1        0.0699
      6 C          63.9580   89.2605   13.2573 C.ar    1  UNL1        0.0061
      7 C          63.1435   87.1314   12.2840 C.ar    1  UNL1        0.1718
      8 N          63.7634   86.3945   13.4341 N.ar    1  UNL1       -0.1258
      9 N          63.4950   84.9308   13.2456 N.ar    1  UNL1       -0.0913
     10 C          62.7092   84.7631   11.9790 C.ar    1  UNL1        0.3249
     11 N          62.4919   86.1231   11.3847 N.ar    1  UNL1       -0.2613
     12 C          61.7416   86.3562   10.1069 C.3     1  UNL1        0.1592
     13 C          61.4575   87.6553    9.4129 C.3     1  UNL1        0.2299
     14 O          61.8536   89.0421    9.8253 O.3     1  UNL1       -0.4733
     15 C          68.5091   92.8249   15.1825 C.3     1  UNL1        0.0521
     16 C          67.0750   92.4258   15.3674 C.ar    1  UNL1        0.0594
     17 C          66.3227   91.7872   14.2376 C.ar    1  UNL1        0.0147
     18 C          64.8886   91.3880   14.4225 C.ar    1  UNL1        0.0027
     19 C          64.2069   91.6274   15.7370 C.ar    1  UNL1        0.0207
     20 C          64.9592   92.2660   16.8667 C.ar    1  UNL1        0.0984
     21 N          66.3933   92.6652   16.6819 N.ar    1  UNL1       -0.2481
     22 O          62.2255   83.4634   11.4071 O.3     1  UNL1       -0.4216
     23 C          62.2465   82.2205   12.2466 C.ar    1  UNL1        0.1591
     24 C          61.7693   82.2673   13.6679 C.ar    1  UNL1        0.0385
     25 C          61.7904   81.0243   14.5074 C.ar    1  UNL1        0.0032
     26 C          62.2886   79.7347   13.9255 C.ar    1  UNL1        0.0011
     27 C          62.7658   79.6879   12.5042 C.ar    1  UNL1        0.0145
     28 C          62.7448   80.9309   11.6648 C.ar    1  UNL1        0.0922
     29 CL         63.2220   80.8841   10.2435 Cl      1  UNL1       -0.0791
@<TRIPOS>BOND
     1    15    16    1
     2    16    17   ar
     3    17    18   ar
     4    18     1    1
     5     1     2   ar
     6     2     3   ar
     7     3     4   ar
     8     4     5   ar
     9     5     6   ar
    10     5     7    1
    11     7     8   ar
    12     8     9   ar
    13     9    10   ar
    14    10    22    1
    15    22    23    1
    16    23    24   ar
    17    24    25   ar
    18    25    26   ar
    19    26    27   ar
    20    27    28   ar
    21    28    29    1
    22    10    11   ar
    23    11    12    1
    24    12    13    1
    25    13    14    1
    26    18    19   ar
    27    19    20   ar
    28    20    21   ar
    29    21    16   ar
    30     6     1   ar
    31    11     7   ar
    32    14     4    1
    33    28    23   ar
@<TRIPOS>MOLECULE
*****
 29 33 0 0 0
SMALL
GASTEIGER

@<TRIPOS>ATOM
      1 C          64.5482   90.2351   13.9299 C.ar    1  UNL1        0.0004
      2 C          63.7894   90.7404   12.7388 C.ar    1  UNL1        0.0031
      3 C          62.9982   89.7866   11.8937 C.ar    1  UNL1        0.0370
      4 C          62.9659   88.3274   12.2397 C.ar    1  UNL1        0.1415
      5 C          63.7247   87.8221   13.4308 C.ar    1  UNL1        0.0699
      6 C          64.5159   88.7759   14.2759 C.ar    1  UNL1        0.0061
      7 C          63.8261   86.4178   13.9482 C.ar    1  UNL1        0.1718
      8 N          64.6245   86.0393   15.1604 N.ar    1  UNL1       -0.1258
      9 N          64.4855   84.5596   15.3635 N.ar    1  UNL1       -0.0913
     10 C          63.6013   84.0236   14.2769 C.ar    1  UNL1        0.3249
     11 N          63.1937   85.1720   13.4022 N.ar    1  UNL1       -0.2613
     12 C          62.3037   85.0228   12.2040 C.3     1  UNL1        0.1592
     13 C          61.8263   86.0826   11.2558 C.3     1  UNL1        0.2299
     14 O          62.1210   87.5533   11.2718 O.3     1  UNL1       -0.4733
     15 C          68.9879   92.7428   14.9305 C.3     1  UNL1        0.0521
     16 C          67.5592   92.4428   15.2754 C.ar    1  UNL1        0.0594
     17 C          66.7680   91.4889   14.4302 C.ar    1  UNL1        0.0147
     18 C          65.3394   91.1889   14.7751 C.ar    1  UNL1        0.0027
     19 C          64.7019   91.8427   15.9651 C.ar    1  UNL1        0.0207
     20 C          65.4930   92.7965   16.8103 C.ar    1  UNL1        0.0984
     21 N          66.9218   93.0966   16.4654 N.ar    1  UNL1       -0.2481
     22 O          63.1958   82.5907   14.0967 O.3     1  UNL1       -0.4216
     23 C          63.2707   81.9549   12.7402 C.ar    1  UNL1        0.1591
     24 C          63.9734   82.6609   11.6188 C.ar    1  UNL1        0.0385
     25 C          64.0483   82.0250   10.2623 C.ar    1  UNL1        0.0032
     26 C          63.4205   80.6832   10.0273 C.ar    1  UNL1        0.0011
     27 C          62.7177   79.9772   11.1487 C.ar    1  UNL1        0.0145
     28 C          62.6428   80.6131   12.5053 C.ar    1  UNL1        0.0922
     29 CL         61.9401   79.9071   13.6267 Cl      1  UNL1       -0.0791
@<TRIPOS>BOND
     1    15    16    1
     2    16    17   ar
     3    17    18   ar
     4    18     1    1
     5     1     2   ar
     6     2     3   ar
     7     3     4   ar
     8     4     5   ar
     9     5     6   ar
    10     5     7    1
    11     7     8   ar
    12     8     9   ar
    13     9    10   ar
    14    10    22    1
    15    22    23    1
    16    23    24   ar
    17    24    25   ar
    18    25    26   ar
    19    26    27   ar
    20    27    28   ar
    21    28    29    1
    22    10    11   ar
    23    11    12    1
    24    12    13    1
    25    13    14    1
    26    18    19   ar
    27    19    20   ar
    28    20    21   ar
    29    21    16   ar
    30     6     1   ar
    31    11     7   ar
    32    14     4    1
    33    28    23   ar
@<TRIPOS>MOLECULE
*****
 29 33 0 0 0
SMALL
GASTEIGER

@<TRIPOS>ATOM
      1 C          62.0832   86.1780   10.4486 C.ar    1  UNL1        0.0004
      2 C          62.3285   85.0129   11.3608 C.ar    1  UNL1        0.0031
      3 C          62.9607   85.2316   12.7034 C.ar    1  UNL1        0.0370
      4 C          63.3477   86.6154   13.1337 C.ar    1  UNL1        0.1415
      5 C          63.1024   87.7806   12.2215 C.ar    1  UNL1        0.0699
      6 C          62.4702   87.5619   10.8790 C.ar    1  UNL1        0.0061
      7 C          63.4095   89.2304   12.4529 C.ar    1  UNL1        0.1718
      8 N          63.1125   90.3080   11.4527 N.ar    1  UNL1       -0.1258
      9 N          63.5572   91.6168   12.0354 N.ar    1  UNL1       -0.0913
     10 C          64.1290   91.3480   13.3957 C.ar    1  UNL1        0.3249
     11 N          64.0378   89.8732   13.6539 N.ar    1  UNL1       -0.2613
     12 C          64.5141   89.2248   14.9199 C.3     1  UNL1        0.1592
     13 C          64.4798   87.7736   15.2977 C.3     1  UNL1        0.2299
     14 O          63.9607   86.6123   14.5027 O.3     1  UNL1       -0.4733
     15 C          62.2841   84.1980    5.6487 C.3     1  UNL1        0.0521
     16 C          61.5514   84.9694    6.7061 C.ar    1  UNL1        0.0594
     17 C          62.1837   85.1880    8.0487 C.ar    1  UNL1        0.0147
     18 C          61.4509   85.9594    9.1060 C.ar    1  UNL1        0.0027
     19 C          60.0860   86.5121    8.8209 C.ar    1  UNL1        0.0207
     20 C          59.4537   86.2935    7.4784 C.ar    1  UNL1        0.0984
     21 N          60.1864   85.5221    6.4209 N.ar    1  UNL1       -0.2481
     22 O          64.6931   92.3740   14.3334 O.3     1  UNL1       -0.4216
     23 C          66.1573   92.3679   14.6592 C.ar    1  UNL1        0.1591
     24 C          66.6075   92.3988   16.0897 C.ar    1  UNL1        0.0385
     25 C          68.0717   92.3927   16.4154 C.ar    1  UNL1        0.0032
     26 C          69.0856   92.3557   15.3106 C.ar    1  UNL1        0.0011
     27 C          68.6355   92.3249   13.8801 C.ar    1  UNL1        0.0145
     28 C          67.1712   92.3309   13.5544 C.ar    1  UNL1        0.0922
     29 CL         66.7210   92.3001   12.1239 Cl      1  UNL1       -0.0791
@<TRIPOS>BOND
     1    15    16    1
     2    16    17   ar
     3    17    18   ar
     4    18     1    1
     5     1     2   ar
     6     2     3   ar
     7     3     4   ar
     8     4     5   ar
     9     5     6   ar
    10     5     7    1
    11     7     8   ar
    12     8     9   ar
    13     9    10   ar
    14    10    22    1
    15    22    23    1
    16    23    24   ar
    17    24    25   ar
    18    25    26   ar
    19    26    27   ar
    20    27    28   ar
    21    28    29    1
    22    10    11   ar
    23    11    12    1
    24    12    13    1
    25    13    14    1
    26    18    19   ar
    27    19    20   ar
    28    20    21   ar
    29    21    16   ar
    30     6     1   ar
    31    11     7   ar
    32    14     4    1
    33    28    23   ar
@<TRIPOS>MOLECULE
*****
 29 33 0 0 0
SMALL
GASTEIGER

@<TRIPOS>ATOM
      1 C          62.5651   85.1501   11.4184 C.ar    1  UNL1        0.0004
      2 C          63.2001   86.1079   12.3824 C.ar    1  UNL1        0.0031
      3 C          62.9254   87.5781   12.2696 C.ar    1  UNL1        0.0370
      4 C          62.0156   88.0906   11.1927 C.ar    1  UNL1        0.1415
      5 C          61.3805   87.1328   10.2287 C.ar    1  UNL1        0.0699
      6 C          61.6553   85.6625   10.3416 C.ar    1  UNL1        0.0061
      7 C          60.4499   87.4306    9.0907 C.ar    1  UNL1        0.1718
      8 N          59.8787   86.3741    8.1921 N.ar    1  UNL1       -0.1258
      9 N          59.0002   87.0503    7.1816 N.ar    1  UNL1       -0.0913
     10 C          59.0285   88.5247    7.4557 C.ar    1  UNL1        0.3249
     11 N          59.9244   88.7598    8.6355 N.ar    1  UNL1       -0.2613
     12 C          60.1999   90.1195    9.2060 C.3     1  UNL1        0.1592
     13 C          61.0687   90.4858   10.3726 C.3     1  UNL1        0.2299
     14 O          61.8768   89.5828   11.2567 O.3     1  UNL1       -0.4733
     15 C          62.1761   80.6886   14.0537 C.3     1  UNL1        0.0521
     16 C          62.6454   81.4490   12.8489 C.ar    1  UNL1        0.0594
     17 C          62.3706   82.9193   12.7361 C.ar    1  UNL1        0.0147
     18 C          62.8399   83.6797   11.5313 C.ar    1  UNL1        0.0027
     19 C          63.5839   82.9698   10.4393 C.ar    1  UNL1        0.0207
     20 C          63.8586   81.4996   10.5520 C.ar    1  UNL1        0.0984
     21 N          63.3894   80.7391   11.7569 N.ar    1  UNL1       -0.2481
     22 O          58.2904   89.5790    6.6851 O.3     1  UNL1       -0.4216
     23 C          59.0275   90.4516    5.7128 C.ar    1  UNL1        0.1591
     24 C          60.5134   90.3153    5.5599 C.ar    1  UNL1        0.0385
     25 C          61.2504   91.1880    4.5876 C.ar    1  UNL1        0.0032
     26 C          60.5015   92.1968    3.7684 C.ar    1  UNL1        0.0011
     27 C          59.0156   92.3332    3.9213 C.ar    1  UNL1        0.0145
     28 C          58.2785   91.4605    4.8936 C.ar    1  UNL1        0.0922
     29 CL         56.7926   91.5968    5.0465 Cl      1  UNL1       -0.0791
@<TRIPOS>BOND
     1    15    16    1
     2    16    17   ar
     3    17    18   ar
     4    18     1    1
     5     1     2   ar
     6     2     3   ar
     7     3     4   ar
     8     4     5   ar
     9     5     6   ar
    10     5     7    1
    11     7     8   ar
    12     8     9   ar
    13     9    10   ar
    14    10    22    1
    15    22    23    1
    16    23    24   ar
    17    24    25   ar
    18    25    26   ar
    19    26    27   ar
    20    27    28   ar
    21    28    29    1
    22    10    11   ar
    23    11    12    1
    24    12    13    1
    25    13    14    1
    26    18    19   ar
    27    19    20   ar
    28    20    21   ar
    29    21    16   ar
    30     6     1   ar
    31    11     7   ar
    32    14     4    1
    33    28    23   ar
@<TRIPOS>MOLECULE
*****
 29 33 0 0 0
SMALL
GASTEIGER

@<TRIPOS>ATOM
      1 C          64.2389   90.8536   12.1972 C.ar    1  UNL1        0.0004
      2 C          63.3941   90.8738   10.9579 C.ar    1  UNL1        0.0031
      3 C          62.5919   89.6649   10.5772 C.ar    1  UNL1        0.0370
      4 C          62.6347   88.4356   11.4358 C.ar    1  UNL1        0.1415
      5 C          63.4795   88.4154   12.6751 C.ar    1  UNL1        0.0699
      6 C          64.2816   89.6243   13.0557 C.ar    1  UNL1        0.0061
      7 C          63.6634   87.3022   13.6635 C.ar    1  UNL1        0.1718
      8 N          64.5442   87.4082   14.8730 N.ar    1  UNL1       -0.1258
      9 N          64.4730   86.1058   15.6138 N.ar    1  UNL1       -0.0913
     10 C          63.5483   85.1949   14.8621 C.ar    1  UNL1        0.3249
     11 N          63.0480   85.9343   13.6567 N.ar    1  UNL1       -0.2613
     12 C          62.0966   85.3417   12.6598 C.3     1  UNL1        0.1592
     13 C          61.5256   85.9707   11.4236 C.3     1  UNL1        0.2299
     14 O          61.7651   87.3477   10.8789 O.3     1  UNL1       -0.4733
     15 C          66.3864   95.4118   10.9278 C.3     1  UNL1        0.0521
     16 C          66.1148   94.3417   11.9432 C.ar    1  UNL1        0.0594
     17 C          65.3126   93.1327   11.5625 C.ar    1  UNL1        0.0147
     18 C          65.0410   92.0626   12.5779 C.ar    1  UNL1        0.0027
     19 C          65.5716   92.2014   13.9740 C.ar    1  UNL1        0.0207
     20 C          66.3738   93.4103   14.3548 C.ar    1  UNL1        0.0984
     21 N          66.6454   94.4805   13.3394 N.ar    1  UNL1       -0.2481
     22 O          63.1874   83.7910   15.2480 O.3     1  UNL1       -0.4216
     23 C          63.0523   82.7341   14.1923 C.ar    1  UNL1        0.1591
     24 C          61.9148   81.7580   14.2496 C.ar    1  UNL1        0.0385
     25 C          61.7797   80.7010   13.1937 C.ar    1  UNL1        0.0032
     26 C          62.7820   80.6203   12.0808 C.ar    1  UNL1        0.0011
     27 C          63.9195   81.5964   12.0235 C.ar    1  UNL1        0.0145
     28 C          64.0546   82.6533   13.0793 C.ar    1  UNL1        0.0922
     29 CL         65.1921   83.6294   13.0220 Cl      1  UNL1       -0.0791
@<TRIPOS>BOND
     1    15    16    1
     2    16    17   ar
     3    17    18   ar
     4    18     1    1
     5     1     2   ar
     6     2     3   ar
     7     3     4   ar
     8     4     5   ar
     9     5     6   ar
    10     5     7    1
    11     7     8   ar
    12     8     9   ar
    13     9    10   ar
    14    10    22    1
    15    22    23    1
    16    23    24   ar
    17    24    25   ar
    18    25    26   ar
    19    26    27   ar
    20    27    28   ar
    21    28    29    1
    22    10    11   ar
    23    11    12    1
    24    12    13    1
    25    13    14    1
    26    18    19   ar
    27    19    20   ar
    28    20    21   ar
    29    21    16   ar
    30     6     1   ar
    31    11     7   ar
    32    14     4    1
    33    28    23   ar
@<TRIPOS>MOLECULE
*****
 29 33 0 0 0
SMALL
GASTEIGER

@<TRIPOS>ATOM
      1 C          62.4809   84.6369   10.9298 C.ar    1  UNL1        0.0004
      2 C          61.8937   85.0674    9.6184 C.ar    1  UNL1        0.0031
      3 C          61.7341   86.5269    9.3112 C.ar    1  UNL1        0.0370
      4 C          62.1617   87.5558   10.3153 C.ar    1  UNL1        0.1415
      5 C          62.7490   87.1254   11.6267 C.ar    1  UNL1        0.0699
      6 C          62.9085   85.6659   11.9340 C.ar    1  UNL1        0.0061
      7 C          63.2361   87.9802   12.7589 C.ar    1  UNL1        0.1718
      8 N          63.8071   87.4227   14.0290 N.ar    1  UNL1       -0.1258
      9 N          64.1802   88.5746   14.9144 N.ar    1  UNL1       -0.0913
     10 C          63.8398   89.8440   14.1915 C.ar    1  UNL1        0.3249
     11 N          63.2563   89.4767   12.8593 N.ar    1  UNL1       -0.2613
     12 C          62.7944   90.4879   11.8523 C.3     1  UNL1        0.1592
     13 C          62.1982   90.2525   10.4963 C.3     1  UNL1        0.2299
     14 O          61.9166   88.9475    9.8122 O.3     1  UNL1       -0.4733
     15 C          61.8257   80.6206   14.1610 C.3     1  UNL1        0.0521
     16 C          62.3129   81.1692   12.8527 C.ar    1  UNL1        0.0594
     17 C          62.1533   82.6288   12.5454 C.ar    1  UNL1        0.0147
     18 C          62.6405   83.1774   11.2371 C.ar    1  UNL1        0.0027
     19 C          63.2873   82.2665   10.2361 C.ar    1  UNL1        0.0207
     20 C          63.4469   80.8071   10.5434 C.ar    1  UNL1        0.0984
     21 N          62.9597   80.2584   11.8517 N.ar    1  UNL1       -0.2481
     22 O          64.0466   91.2364   14.7098 O.3     1  UNL1       -0.4216
     23 C          65.0344   92.1464   14.0419 C.ar    1  UNL1        0.1591
     24 C          64.9893   92.3404   12.5552 C.ar    1  UNL1        0.0385
     25 C          65.9772   93.2504   11.8874 C.ar    1  UNL1        0.0032
     26 C          67.0100   93.9664   12.7062 C.ar    1  UNL1        0.0011
     27 C          67.0551   93.7724   14.1929 C.ar    1  UNL1        0.0145
     28 C          66.0672   92.8623   14.8608 C.ar    1  UNL1        0.0922
     29 CL         66.1123   92.6684   16.3475 Cl      1  UNL1       -0.0791
@<TRIPOS>BOND
     1    15    16    1
     2    16    17   ar
     3    17    18   ar
     4    18     1    1
     5     1     2   ar
     6     2     3   ar
     7     3     4   ar
     8     4     5   ar
     9     5     6   ar
    10     5     7    1
    11     7     8   ar
    12     8     9   ar
    13     9    10   ar
    14    10    22    1
    15    22    23    1
    16    23    24   ar
    17    24    25   ar
    18    25    26   ar
    19    26    27   ar
    20    27    28   ar
    21    28    29    1
    22    10    11   ar
    23    11    12    1
    24    12    13    1
    25    13    14    1
    26    18    19   ar
    27    19    20   ar
    28    20    21   ar
    29    21    16   ar
    30     6     1   ar
    31    11     7   ar
    32    14     4    1
    33    28    23   ar
@<TRIPOS>MOLECULE
*****
 29 33 0 0 0
SMALL
GASTEIGER

@<TRIPOS>ATOM
      1 C          63.2545   83.8489   13.8102 C.ar    1  UNL1        0.0004
      2 C          62.9721   83.3095   15.1810 C.ar    1  UNL1        0.0031
      3 C          62.8771   84.2446   16.3500 C.ar    1  UNL1        0.0370
      4 C          63.0647   85.7191   16.1482 C.ar    1  UNL1        0.1415
      5 C          63.3471   86.2585   14.7773 C.ar    1  UNL1        0.0699
      6 C          63.4420   85.3234   13.6083 C.ar    1  UNL1        0.0061
      7 C          63.5650   87.6824   14.3591 C.ar    1  UNL1        0.1718
      8 N          63.8415   88.0950   12.9438 N.ar    1  UNL1       -0.1258
      9 N          64.0016   89.5862   12.9184 N.ar    1  UNL1       -0.0913
     10 C          63.8241   90.0953   14.3182 C.ar    1  UNL1        0.3249
     11 N          63.5542   88.9187   15.2086 N.ar    1  UNL1       -0.2613
     12 C          63.3230   89.0363   16.6860 C.3     1  UNL1        0.1592
     13 C          63.0453   87.9468   17.6788 C.3     1  UNL1        0.2299
     14 O          62.9304   86.4704   17.4394 O.3     1  UNL1       -0.4733
     15 C          62.5327   79.1341   11.7487 C.3     1  UNL1        0.0521
     16 C          62.9885   80.5564   11.6103 C.ar    1  UNL1        0.0594
     17 C          62.8936   81.4915   12.7794 C.ar    1  UNL1        0.0147
     18 C          63.3494   82.9138   12.6411 C.ar    1  UNL1        0.0027
     19 C          63.9002   83.4012   11.3338 C.ar    1  UNL1        0.0207
     20 C          63.9951   82.4662   10.1647 C.ar    1  UNL1        0.0984
     21 N          63.5393   81.0437   10.3030 N.ar    1  UNL1       -0.2481
     22 O          63.9027   91.5292   14.7514 O.3     1  UNL1       -0.4216
     23 C          65.2374   92.2009   14.8831 C.ar    1  UNL1        0.1591
     24 C          65.9013   92.2934   16.2250 C.ar    1  UNL1        0.0385
     25 C          67.2361   92.9652   16.3566 C.ar    1  UNL1        0.0032
     26 C          67.9068   93.5444   15.1464 C.ar    1  UNL1        0.0011
     27 C          67.2429   93.4519   13.8045 C.ar    1  UNL1        0.0145
     28 C          65.9081   92.7801   13.6729 C.ar    1  UNL1        0.0922
     29 CL         65.2442   92.6876   12.3310 Cl      1  UNL1       -0.0791
@<TRIPOS>BOND
     1    15    16    1
     2    16    17   ar
     3    17    18   ar
     4    18     1    1
     5     1     2   ar
     6     2     3   ar
     7     3     4   ar
     8     4     5   ar
     9     5     6   ar
    10     5     7    1
    11     7     8   ar
    12     8     9   ar
    13     9    10   ar
    14    10    22    1
    15    22    23    1
    16    23    24   ar
    17    24    25   ar
    18    25    26   ar
    19    26    27   ar
    20    27    28   ar
    21    28    29    1
    22    10    11   ar
    23    11    12    1
    24    12    13    1
    25    13    14    1
    26    18    19   ar
    27    19    20   ar
    28    20    21   ar
    29    21    16   ar
    30     6     1   ar
    31    11     7   ar
    32    14     4    1
    33    28    23   ar
