@<TRIPOS>MOLECULE
*****
 47 51 0 0 0
SMALL
GASTEIGER

@<TRIPOS>ATOM
      1 C          62.7401   86.8690   11.4059 C.3     1  UNL1        0.1696
      2 C          62.8688   85.7121   12.3520 C.3     1  UNL1        0.1274
      3 N          63.0551   85.7374   13.8402 N.am    1  UNL1       -0.2518
      4 C          63.1504   84.3971   14.5069 C.2     1  UNL1        0.2528
      5 O          63.3373   84.3101   15.9928 O.2     1  UNL1       -0.2696
      6 C          63.1585   86.9257   14.7498 C.ar    1  UNL1        0.0678
      7 C          63.3412   86.5077   16.1787 C.ar    1  UNL1        0.0162
      8 C          63.4668   87.5462   17.2537 C.ar    1  UNL1        0.0014
      9 C          63.4096   89.0027   16.8998 C.ar    1  UNL1        0.0014
     10 C          63.2268   89.4207   15.4708 C.ar    1  UNL1        0.0162
     11 C          63.1013   88.3822   14.3959 C.ar    1  UNL1        0.0679
     12 N          62.9265   89.0101   13.0449 N.am    1  UNL1       -0.2517
     13 C          62.7658   88.3368   11.7142 C.2     1  UNL1        0.2493
     14 O          62.6101   89.2521   10.5361 O.2     1  UNL1       -0.2727
     15 C          63.0589   83.1438   13.6879 C.ar    1  UNL1        0.0540
     16 C          62.1483   82.0320   14.1176 C.ar    1  UNL1        0.0058
     17 C          62.0567   80.7786   13.2986 C.ar    1  UNL1        0.0185
     18 C          62.8758   80.6371   12.0500 C.ar    1  UNL1        0.1057
     19 C          63.7863   81.7489   11.6203 C.ar    1  UNL1        0.0185
     20 C          63.8779   83.0023   12.4392 C.ar    1  UNL1        0.0058
     21 S          62.7842   79.3837   11.2309 S.O2    1  UNL1        0.0104
     22 C          62.6927   78.1304   10.4120 C.3     1  UNL1        0.1816
     23 O          63.0376   80.1794    9.9850 O.2     1  UNL1       -0.1686
     24 O          62.5308   78.5880   12.4770 O.2     1  UNL1       -0.1686
     25 C          61.1860   86.4500    9.3665 C.2     1  UNL1        0.2371
     26 O          59.9878   86.7475   10.2184 O.2     1  UNL1       -0.2737
     27 N          62.5621   86.5107    9.9602 N.am    1  UNL1       -0.2959
     28 H          63.3486   86.3154    9.4010 H       1  UNL1        0.1499
     29 C          61.0081   86.0917    7.9208 C.3     1  UNL1        0.1316
     30 C          62.0321   85.2432    7.2268 C.3     1  UNL1        0.0270
     31 C          59.3056   87.9794    7.3841 C.3     1  UNL1        0.0862
     32 N          59.8062   86.5818    7.1691 N.3     1  UNL1       -0.2902
     33 H          60.0249   86.4968    6.1764 H       1  UNL1        0.1237
     34 C          62.9104   90.5099   13.0215 C.3     1  UNL1        0.1278
     35 C          64.0537   91.2629   12.4083 C.ar    1  UNL1        0.0320
     36 C          63.9873   91.6871   10.9711 C.ar    1  UNL1        0.1363
     37 C          65.1306   92.4401   10.3579 C.ar    1  UNL1        0.0366
     38 C          66.3401   92.7688   11.1819 C.ar    1  UNL1        0.0031
     39 C          66.4065   92.3445   12.6191 C.ar    1  UNL1        0.0004
     40 C          67.6160   92.6731   13.4431 C.ar    1  UNL1        0.0067
     41 C          67.6823   92.2488   14.8803 C.ar    1  UNL1        0.0346
     42 BR         68.8919   92.5774   15.7043 Br      1  UNL1       -0.0490
     43 C          66.5390   91.4958   15.4935 C.ar    1  UNL1        0.0067
     44 C          65.3295   91.1672   14.6695 C.ar    1  UNL1        0.0003
     45 C          65.2632   91.5915   13.2324 C.ar    1  UNL1        0.0006
     46 O          62.7778   91.3585   10.1471 O.3     1  UNL1       -0.4717
     47 C          61.3157   91.2195   10.4517 C.3     1  UNL1        0.2525
@<TRIPOS>BOND
     1    31    32    1
     2    32    29    1
     3    29    30    1
     4    29    25    1
     5    25    26    2
     6    25    27   am
     7     1    27    1
     8     1     2    1
     9     2     3    1
    10     3     4   am
    11     4     5    2
    12     4    15    1
    13    15    16   ar
    14    16    17   ar
    15    17    18   ar
    16    18    21    1
    17    21    22    1
    18    21    23    2
    19    21    24    2
    20    18    19   ar
    21    19    20   ar
    22     3     6    1
    23     6     7   ar
    24     7     8   ar
    25     8     9   ar
    26     9    10   ar
    27    10    11   ar
    28    11    12    1
    29    12    34    1
    30    34    35    1
    31    35    36   ar
    32    36    46    1
    33    46    47    1
    34    36    37   ar
    35    37    38   ar
    36    38    39   ar
    37    39    40   ar
    38    40    41   ar
    39    41    42    1
    40    41    43   ar
    41    43    44   ar
    42    44    45   ar
    43    12    13   am
    44    13    14    2
    45    13     1    1
    46    20    15   ar
    47    11     6   ar
    48    45    35   ar
    49    45    39   ar
    50    32    33    1
    51    27    28    1
@<TRIPOS>MOLECULE
*****
 47 51 0 0 0
SMALL
GASTEIGER

@<TRIPOS>ATOM
      1 C          63.5715   91.2056   10.9926 C.3     1  UNL1        0.1696
      2 C          63.8988   91.1810   12.4563 C.3     1  UNL1        0.1274
      3 N          63.0791   90.6375   13.5888 N.am    1  UNL1       -0.2518
      4 C          63.6896   90.7637   14.9531 C.2     1  UNL1        0.2528
      5 O          62.9524   90.2517   16.1551 O.2     1  UNL1       -0.2696
      6 C          61.7297   89.9844   13.5376 C.ar    1  UNL1        0.0678
      7 C          61.2626   89.5835   14.9054 C.ar    1  UNL1        0.0162
      8 C          59.9324   88.9118   15.0767 C.ar    1  UNL1        0.0014
      9 C          59.0694   88.6409   13.8801 C.ar    1  UNL1        0.0014
     10 C          59.5365   89.0418   12.5122 C.ar    1  UNL1        0.0162
     11 C          60.8667   89.7135   12.3410 C.ar    1  UNL1        0.0679
     12 N          61.1399   90.0289   10.9002 N.am    1  UNL1       -0.2517
     13 C          62.3436   90.6929   10.3000 C.2     1  UNL1        0.2493
     14 O          62.3159   90.8673    8.8105 O.2     1  UNL1       -0.2727
     15 C          65.0374   91.4019   15.1156 C.ar    1  UNL1        0.0540
     16 C          65.2804   92.3654   16.2392 C.ar    1  UNL1        0.0058
     17 C          66.6280   93.0036   16.4018 C.ar    1  UNL1        0.0185
     18 C          67.7327   92.6783   15.4406 C.ar    1  UNL1        0.1057
     19 C          67.4897   91.7148   14.3170 C.ar    1  UNL1        0.0185
     20 C          66.1421   91.0766   14.1545 C.ar    1  UNL1        0.0058
     21 S          69.0805   93.3165   15.6031 S.O2    1  UNL1        0.0104
     22 C          70.4282   93.9547   15.7655 C.3     1  UNL1        0.1816
     23 O          68.5051   94.2775   16.6007 O.2     1  UNL1       -0.1686
     24 O          69.6559   92.3554   14.6054 O.2     1  UNL1       -0.1686
     25 C          65.5000   92.9091   10.6339 C.2     1  UNL1        0.2371
     26 O          65.3532   93.3740   12.0525 O.2     1  UNL1       -0.2737
     27 N          64.6091   91.8249   10.1040 N.am    1  UNL1       -0.2959
     28 H          64.7055   91.5198    9.1729 H       1  UNL1        0.1499
     29 C          66.5377   93.5284    9.7453 C.3     1  UNL1        0.1316
     30 C          67.8409   92.8238    9.5100 C.3     1  UNL1        0.0270
     31 C          67.2824   95.9562    9.1965 C.3     1  UNL1        0.0862
     32 N          66.2723   94.8523    9.0919 N.3     1  UNL1       -0.2902
     33 H          66.1389   94.6684    8.0975 H       1  UNL1        0.1237
     34 C          60.0676   89.6270    9.9313 C.3     1  UNL1        0.1278
     35 C          60.2311   88.3868    9.1035 C.ar    1  UNL1        0.0320
     36 C          59.6095   88.3076    7.7406 C.ar    1  UNL1        0.1363
     37 C          59.7730   87.0675    6.9127 C.ar    1  UNL1        0.0366
     38 C          60.5580   85.9066    7.4477 C.ar    1  UNL1        0.0031
     39 C          61.1796   85.9859    8.8106 C.ar    1  UNL1        0.0004
     40 C          61.9647   84.8251    9.3455 C.ar    1  UNL1        0.0067
     41 C          62.5862   84.9044   10.7083 C.ar    1  UNL1        0.0346
     42 BR         63.3713   83.7436   11.2433 Br      1  UNL1       -0.0490
     43 C          62.4228   86.1446   11.5363 C.ar    1  UNL1        0.0067
     44 C          61.6377   87.3053   11.0012 C.ar    1  UNL1        0.0003
     45 C          61.0162   87.2261    9.6385 C.ar    1  UNL1        0.0006
     46 O          58.8245   89.4684    7.2056 O.3     1  UNL1       -0.4717
     47 C          58.8059   90.1986    5.8955 C.3     1  UNL1        0.2525
@<TRIPOS>BOND
     1    31    32    1
     2    32    29    1
     3    29    30    1
     4    29    25    1
     5    25    26    2
     6    25    27   am
     7     1    27    1
     8     1     2    1
     9     2     3    1
    10     3     4   am
    11     4     5    2
    12     4    15    1
    13    15    16   ar
    14    16    17   ar
    15    17    18   ar
    16    18    21    1
    17    21    22    1
    18    21    23    2
    19    21    24    2
    20    18    19   ar
    21    19    20   ar
    22     3     6    1
    23     6     7   ar
    24     7     8   ar
    25     8     9   ar
    26     9    10   ar
    27    10    11   ar
    28    11    12    1
    29    12    34    1
    30    34    35    1
    31    35    36   ar
    32    36    46    1
    33    46    47    1
    34    36    37   ar
    35    37    38   ar
    36    38    39   ar
    37    39    40   ar
    38    40    41   ar
    39    41    42    1
    40    41    43   ar
    41    43    44   ar
    42    44    45   ar
    43    12    13   am
    44    13    14    2
    45    13     1    1
    46    20    15   ar
    47    11     6   ar
    48    45    35   ar
    49    45    39   ar
    50    32    33    1
    51    27    28    1
@<TRIPOS>MOLECULE
*****
 47 51 0 0 0
SMALL
GASTEIGER

@<TRIPOS>ATOM
      1 C          63.0393   87.4737   11.8506 C.3     1  UNL1        0.1696
      2 C          63.0642   86.2535   12.7226 C.3     1  UNL1        0.1274
      3 N          63.1413   86.1746   14.2185 N.am    1  UNL1       -0.2518
      4 C          63.1481   84.7909   14.7977 C.2     1  UNL1        0.2528
      5 O          63.2228   84.6002   16.2837 O.2     1  UNL1       -0.2696
      6 C          63.2126   87.2962   15.2119 C.ar    1  UNL1        0.0678
      7 C          63.2776   86.7793   16.6185 C.ar    1  UNL1        0.0162
      8 C          63.3543   87.7401   17.7678 C.ar    1  UNL1        0.0014
      9 C          63.3661   89.2178   17.5106 C.ar    1  UNL1        0.0014
     10 C          63.3011   89.7348   16.1040 C.ar    1  UNL1        0.0162
     11 C          63.2244   88.7740   14.9547 C.ar    1  UNL1        0.0679
     12 N          63.1678   89.4949   13.6405 N.am    1  UNL1       -0.2517
     13 C          63.0854   88.9164   12.2590 C.2     1  UNL1        0.2493
     14 O          63.0436   89.9119   11.1379 O.2     1  UNL1       -0.2727
     15 C          63.0801   83.5979   13.8910 C.ar    1  UNL1        0.0540
     16 C          64.0796   83.4394   12.7839 C.ar    1  UNL1        0.0058
     17 C          64.0117   82.2465   11.8771 C.ar    1  UNL1        0.0185
     18 C          62.9441   81.2120   12.0775 C.ar    1  UNL1        0.1057
     19 C          61.9445   81.3705   13.1845 C.ar    1  UNL1        0.0185
     20 C          62.0125   82.5634   14.0913 C.ar    1  UNL1        0.0058
     21 S          62.8761   80.0190   11.1707 S.O2    1  UNL1        0.0104
     22 C          62.8081   78.8260   10.2640 C.3     1  UNL1        0.1816
     23 O          63.2217   80.8897    9.9993 O.2     1  UNL1       -0.1686
     24 O          62.5305   79.1483   12.3422 O.2     1  UNL1       -0.1686
     25 C          61.7295   86.5848    9.7905 C.2     1  UNL1        0.2371
     26 O          60.5832   86.2082   10.6818 O.2     1  UNL1       -0.2737
     27 N          62.9575   87.2175   10.3749 N.am    1  UNL1       -0.2959
     28 H          63.7098   87.4646    9.7899 H       1  UNL1        0.1499
     29 C          61.6476   86.3285    8.3148 C.3     1  UNL1        0.1316
     30 C          62.6150   85.3857    7.6625 C.3     1  UNL1        0.0270
     31 C          59.1649   86.5859    7.5940 C.3     1  UNL1        0.0862
     32 N          60.5985   87.0150    7.4914 N.3     1  UNL1       -0.2902
     33 H          60.6286   88.0036    7.7409 H       1  UNL1        0.1237
     34 C          63.1975   90.9926   13.7181 C.3     1  UNL1        0.1278
     35 C          64.5065   91.7103   13.8649 C.ar    1  UNL1        0.0320
     36 C          65.0050   92.0894   15.2279 C.ar    1  UNL1        0.1363
     37 C          66.3140   92.8071   15.3749 C.ar    1  UNL1        0.0366
     38 C          67.1243   93.1456   14.1589 C.ar    1  UNL1        0.0031
     39 C          66.6257   92.7665   12.7959 C.ar    1  UNL1        0.0004
     40 C          67.4361   93.1051   11.5798 C.ar    1  UNL1        0.0067
     41 C          66.9375   92.7259   10.2169 C.ar    1  UNL1        0.0346
     42 BR         67.7478   93.0645    9.0009 Br      1  UNL1       -0.0490
     43 C          65.6285   92.0083   10.0699 C.ar    1  UNL1        0.0067
     44 C          64.8182   91.6697   11.2860 C.ar    1  UNL1        0.0003
     45 C          65.3168   92.0488   12.6489 C.ar    1  UNL1        0.0006
     46 O          64.1947   91.7509   16.4440 O.3     1  UNL1       -0.4717
     47 C          63.6411   92.5534   17.5839 C.3     1  UNL1        0.2525
@<TRIPOS>BOND
     1    31    32    1
     2    32    29    1
     3    29    30    1
     4    29    25    1
     5    25    26    2
     6    25    27   am
     7     1    27    1
     8     1     2    1
     9     2     3    1
    10     3     4   am
    11     4     5    2
    12     4    15    1
    13    15    16   ar
    14    16    17   ar
    15    17    18   ar
    16    18    21    1
    17    21    22    1
    18    21    23    2
    19    21    24    2
    20    18    19   ar
    21    19    20   ar
    22     3     6    1
    23     6     7   ar
    24     7     8   ar
    25     8     9   ar
    26     9    10   ar
    27    10    11   ar
    28    11    12    1
    29    12    34    1
    30    34    35    1
    31    35    36   ar
    32    36    46    1
    33    46    47    1
    34    36    37   ar
    35    37    38   ar
    36    38    39   ar
    37    39    40   ar
    38    40    41   ar
    39    41    42    1
    40    41    43   ar
    41    43    44   ar
    42    44    45   ar
    43    12    13   am
    44    13    14    2
    45    13     1    1
    46    20    15   ar
    47    11     6   ar
    48    45    35   ar
    49    45    39   ar
    50    32    33    1
    51    27    28    1
