@<TRIPOS>MOLECULE
*****
 31 33 0 0 0
SMALL
GASTEIGER

@<TRIPOS>ATOM
      1 C          63.8881   90.8170   14.5602 C.ar    1  UNL1        0.1357
      2 N          64.6986   91.4200   15.6690 N.ar    1  UNL1       -0.1992
      3 C          65.7327   92.4621   15.3611 C.ar    1  UNL1        0.2148
      4 N          66.5432   93.0651   16.4699 N.pl3   1  UNL1       -0.3274
      5 N          65.9562   92.9012   13.9443 N.ar    1  UNL1       -0.2138
      6 C          65.1456   92.2982   12.8355 C.ar    1  UNL1        0.0898
      7 C          65.3692   92.7373   11.4187 C.ar    1  UNL1        0.0195
      8 C          64.5586   92.1343   10.3099 C.ar    1  UNL1        0.0047
      9 C          63.5246   91.0922   10.6179 C.ar    1  UNL1        0.0371
     10 C          63.3011   90.6531   12.0346 C.ar    1  UNL1        0.1432
     11 C          64.1116   91.2561   13.1434 C.ar    1  UNL1        0.0831
     12 H          66.3965   92.7769   17.3998 H       1  UNL1        0.1452
     13 H          67.2219   93.7491   16.2678 H       1  UNL1        0.1452
     14 N          62.8541   89.7749   14.8682 N.pl3   1  UNL1       -0.3179
     15 H          62.3358   89.3650   14.1384 H       1  UNL1        0.1482
     16 C          62.6098   89.3574   16.2880 C.3     1  UNL1        0.0882
     17 C          63.3388   88.1771   16.8587 C.3     1  UNL1        0.0212
     18 C          62.3604   85.7888   17.1569 C.3     1  UNL1        0.0001
     19 C          62.6007   87.1701   17.6901 C.3     1  UNL1        0.0017
     20 O          62.2671   89.6110   12.3426 O.3     1  UNL1       -0.4687
     21 C          62.2385   88.3296   11.5635 C.3     1  UNL1        0.2540
     22 C          62.7969   87.0738   12.1644 C.ar    1  UNL1        0.1395
     23 N          63.6294   87.1443   13.4102 N.ar    1  UNL1       -0.2412
     24 C          64.1878   85.8885   14.0111 C.ar    1  UNL1        0.1019
     25 C          63.9137   84.5622   13.3663 C.ar    1  UNL1        0.0607
     26 C          63.0812   84.4917   12.1205 C.ar    1  UNL1        0.1752
     27 C          62.5228   85.7475   11.5196 C.ar    1  UNL1        0.1894
     28 O          62.8070   83.1655   11.4758 O.3     1  UNL1       -0.4683
     29 C          63.8453   82.5281   10.6007 C.3     1  UNL1        0.2526
     30 O          61.6902   85.6771   10.2739 O.3     1  UNL1       -0.4670
     31 C          62.3455   85.7695    8.9277 C.3     1  UNL1        0.2527
@<TRIPOS>BOND
     1    18    19    1
     2    19    17    1
     3    17    16    1
     4    16    14    1
     5    14     1    1
     6     1     2   ar
     7     2     3   ar
     8     3     4    1
     9     3     5   ar
    10     5     6   ar
    11     6     7   ar
    12     7     8   ar
    13     8     9   ar
    14     9    10   ar
    15    10    20    1
    16    20    21    1
    17    21    22    1
    18    22    23   ar
    19    23    24   ar
    20    24    25   ar
    21    25    26   ar
    22    26    28    1
    23    28    29    1
    24    26    27   ar
    25    27    30    1
    26    30    31    1
    27    10    11   ar
    28    11     1   ar
    29    11     6   ar
    30    27    22   ar
    31    14    15    1
    32     4    12    1
    33     4    13    1
@<TRIPOS>MOLECULE
*****
 31 33 0 0 0
SMALL
GASTEIGER

@<TRIPOS>ATOM
      1 C          63.8907   90.9621   14.7080 C.ar    1  UNL1        0.1357
      2 N          64.7811   91.5650   15.7538 N.ar    1  UNL1       -0.1992
      3 C          65.8616   92.5261   15.3555 C.ar    1  UNL1        0.2148
      4 N          66.7521   93.1290   16.4013 N.pl3   1  UNL1       -0.3274
      5 N          66.0518   92.8843   13.9114 N.ar    1  UNL1       -0.2138
      6 C          65.1614   92.2815   12.8655 C.ar    1  UNL1        0.0898
      7 C          65.3515   92.6397   11.4214 C.ar    1  UNL1        0.0195
      8 C          64.4611   92.0368   10.3756 C.ar    1  UNL1        0.0047
      9 C          63.3805   91.0757   10.7740 C.ar    1  UNL1        0.0371
     10 C          63.1904   90.7175   12.2181 C.ar    1  UNL1        0.1432
     11 C          64.0808   91.3203   13.2638 C.ar    1  UNL1        0.0831
     12 H          66.6273   92.8938   17.3491 H       1  UNL1        0.1452
     13 H          67.4613   93.7598   16.1399 H       1  UNL1        0.1452
     14 N          62.8101   90.0010   15.1064 N.pl3   1  UNL1       -0.3179
     15 H          61.9993   89.9157   14.5545 H       1  UNL1        0.1482
     16 C          62.9649   89.1700   16.3454 C.3     1  UNL1        0.0882
     17 C          63.5376   87.7866   16.2540 C.3     1  UNL1        0.0212
     18 C          64.6620   85.9245   14.8332 C.3     1  UNL1        0.0001
     19 C          64.2835   87.3635   15.0232 C.3     1  UNL1        0.0017
     20 O          62.1098   89.7564   12.6164 O.3     1  UNL1       -0.4687
     21 C          61.2665   89.0982   11.5649 C.3     1  UNL1        0.2540
     22 C          61.6383   87.7405   11.0467 C.ar    1  UNL1        0.1395
     23 N          62.2678   86.7342   11.9638 N.ar    1  UNL1       -0.2412
     24 C          62.6396   85.3765   11.4455 C.ar    1  UNL1        0.1019
     25 C          62.3819   85.0253   10.0101 C.ar    1  UNL1        0.0607
     26 C          61.7525   86.0316    9.0931 C.ar    1  UNL1        0.1752
     27 C          61.3807   87.3893    9.6114 C.ar    1  UNL1        0.1894
     28 O          61.4949   85.6804    7.6578 O.3     1  UNL1       -0.4683
     29 C          62.4785   84.8350    6.9043 C.3     1  UNL1        0.2526
     30 O          60.7513   88.3956    8.6943 O.3     1  UNL1       -0.4670
     31 C          59.4391   88.0913    8.0342 C.3     1  UNL1        0.2527
@<TRIPOS>BOND
     1    18    19    1
     2    19    17    1
     3    17    16    1
     4    16    14    1
     5    14     1    1
     6     1     2   ar
     7     2     3   ar
     8     3     4    1
     9     3     5   ar
    10     5     6   ar
    11     6     7   ar
    12     7     8   ar
    13     8     9   ar
    14     9    10   ar
    15    10    20    1
    16    20    21    1
    17    21    22    1
    18    22    23   ar
    19    23    24   ar
    20    24    25   ar
    21    25    26   ar
    22    26    28    1
    23    28    29    1
    24    26    27   ar
    25    27    30    1
    26    30    31    1
    27    10    11   ar
    28    11     1   ar
    29    11     6   ar
    30    27    22   ar
    31    14    15    1
    32     4    12    1
    33     4    13    1
@<TRIPOS>MOLECULE
*****
 31 33 0 0 0
SMALL
GASTEIGER

@<TRIPOS>ATOM
      1 C          63.8343   90.8244   14.7637 C.ar    1  UNL1        0.1357
      2 N          64.7148   91.4781   15.7870 N.ar    1  UNL1       -0.1992
      3 C          65.7559   92.4690   15.3577 C.ar    1  UNL1        0.2148
      4 N          66.6364   93.1227   16.3811 N.pl3   1  UNL1       -0.3274
      5 N          65.9164   92.8061   13.9049 N.ar    1  UNL1       -0.2138
      6 C          65.0359   92.1524   12.8815 C.ar    1  UNL1        0.0898
      7 C          65.1965   92.4896   11.4287 C.ar    1  UNL1        0.0195
      8 C          64.3160   91.8359   10.4054 C.ar    1  UNL1        0.0047
      9 C          63.2749   90.8450   10.8347 C.ar    1  UNL1        0.0371
     10 C          63.1144   90.5078   12.2875 C.ar    1  UNL1        0.1432
     11 C          63.9949   91.1615   13.3108 C.ar    1  UNL1        0.0831
     12 H          66.5310   92.9014   17.3346 H       1  UNL1        0.1452
     13 H          67.3197   93.7731   16.0993 H       1  UNL1        0.1452
     14 N          62.7933   89.8335   15.1930 N.pl3   1  UNL1       -0.3179
     15 H          61.9593   89.7413   14.6780 H       1  UNL1        0.1482
     16 C          63.0228   88.9831   16.4071 C.3     1  UNL1        0.0882
     17 C          63.5601   87.5907   16.2568 C.3     1  UNL1        0.0212
     18 C          64.6447   85.7535   14.7740 C.3     1  UNL1        0.0001
     19 C          64.2410   87.1829   14.9840 C.3     1  UNL1        0.0017
     20 O          62.0733   89.5169   12.7168 O.3     1  UNL1       -0.4687
     21 C          60.6902   89.5849   12.1403 C.3     1  UNL1        0.2540
     22 C          60.4368   89.1082   10.7408 C.ar    1  UNL1        0.1395
     23 N          60.0037   90.0808    9.6841 N.ar    1  UNL1       -0.2412
     24 C          59.7502   89.6042    8.2847 C.ar    1  UNL1        0.1019
     25 C          59.9299   88.1549    7.9419 C.ar    1  UNL1        0.0607
     26 C          60.3629   87.1824    8.9985 C.ar    1  UNL1        0.1752
     27 C          60.6164   87.6590   10.3980 C.ar    1  UNL1        0.1894
     28 O          60.5425   85.7332    8.6557 O.3     1  UNL1       -0.4683
     29 C          61.3861   85.3397    7.4795 C.3     1  UNL1        0.2526
     30 O          61.0494   86.6865   11.4547 O.3     1  UNL1       -0.4670
     31 C          62.4440   86.1343   11.4396 C.3     1  UNL1        0.2527
@<TRIPOS>BOND
     1    18    19    1
     2    19    17    1
     3    17    16    1
     4    16    14    1
     5    14     1    1
     6     1     2   ar
     7     2     3   ar
     8     3     4    1
     9     3     5   ar
    10     5     6   ar
    11     6     7   ar
    12     7     8   ar
    13     8     9   ar
    14     9    10   ar
    15    10    20    1
    16    20    21    1
    17    21    22    1
    18    22    23   ar
    19    23    24   ar
    20    24    25   ar
    21    25    26   ar
    22    26    28    1
    23    28    29    1
    24    26    27   ar
    25    27    30    1
    26    30    31    1
    27    10    11   ar
    28    11     1   ar
    29    11     6   ar
    30    27    22   ar
    31    14    15    1
    32     4    12    1
    33     4    13    1
@<TRIPOS>MOLECULE
*****
 31 33 0 0 0
SMALL
GASTEIGER

@<TRIPOS>ATOM
      1 C          63.4562   85.4663   13.2111 C.ar    1  UNL1        0.1357
      2 N          63.5398   83.9762   13.3607 N.ar    1  UNL1       -0.1992
      3 C          63.0552   83.0832   12.2572 C.ar    1  UNL1        0.2148
      4 N          63.1389   81.5930   12.4069 N.pl3   1  UNL1       -0.3274
      5 N          62.4871   83.6804   11.0040 N.ar    1  UNL1       -0.2138
      6 C          62.4035   85.1706   10.8543 C.ar    1  UNL1        0.0898
      7 C          61.8353   85.7677    9.6011 C.ar    1  UNL1        0.0195
      8 C          61.7517   87.2579    9.4514 C.ar    1  UNL1        0.0047
      9 C          62.2363   88.1509   10.5550 C.ar    1  UNL1        0.0371
     10 C          62.8044   87.5537   11.8082 C.ar    1  UNL1        0.1432
     11 C          62.8880   86.0635   11.9578 C.ar    1  UNL1        0.0831
     12 H          63.5118   81.2010   13.2294 H       1  UNL1        0.1452
     13 H          62.8209   81.0069   11.6826 H       1  UNL1        0.1452
     14 N          63.9407   86.3593   14.3146 N.pl3   1  UNL1       -0.3179
     15 H          64.1008   87.3149   14.1402 H       1  UNL1        0.1482
     16 C          64.1813   85.7963   15.6840 C.3     1  UNL1        0.0882
     17 C          63.0477   85.6881   16.6602 C.3     1  UNL1        0.0212
     18 C          63.0318   88.2512   17.0847 C.3     1  UNL1        0.0001
     19 C          62.6895   86.8592   17.5265 C.3     1  UNL1        0.0017
     20 O          63.2890   88.4467   12.9117 O.3     1  UNL1       -0.4687
     21 C          62.9127   89.8986   12.9215 C.3     1  UNL1        0.2540
     22 C          63.9360   90.9409   12.5803 C.ar    1  UNL1        0.1395
     23 N          63.9906   91.5132   11.1948 N.ar    1  UNL1       -0.2412
     24 C          65.0140   92.5555   10.8537 C.ar    1  UNL1        0.1019
     25 C          65.9828   93.0255   11.8980 C.ar    1  UNL1        0.0607
     26 C          65.9282   92.4532   13.2834 C.ar    1  UNL1        0.1752
     27 C          64.9048   91.4109   13.6246 C.ar    1  UNL1        0.1894
     28 O          66.8969   92.9232   14.3277 O.3     1  UNL1       -0.4683
     29 C          68.0517   92.0525   14.7257 C.3     1  UNL1        0.2526
     30 O          64.8502   90.8386   15.0100 O.3     1  UNL1       -0.4670
     31 C          64.2074   91.6181   16.1187 C.3     1  UNL1        0.2527
@<TRIPOS>BOND
     1    18    19    1
     2    19    17    1
     3    17    16    1
     4    16    14    1
     5    14     1    1
     6     1     2   ar
     7     2     3   ar
     8     3     4    1
     9     3     5   ar
    10     5     6   ar
    11     6     7   ar
    12     7     8   ar
    13     8     9   ar
    14     9    10   ar
    15    10    20    1
    16    20    21    1
    17    21    22    1
    18    22    23   ar
    19    23    24   ar
    20    24    25   ar
    21    25    26   ar
    22    26    28    1
    23    28    29    1
    24    26    27   ar
    25    27    30    1
    26    30    31    1
    27    10    11   ar
    28    11     1   ar
    29    11     6   ar
    30    27    22   ar
    31    14    15    1
    32     4    12    1
    33     4    13    1
@<TRIPOS>MOLECULE
*****
 31 33 0 0 0
SMALL
GASTEIGER

@<TRIPOS>ATOM
      1 C          63.3999   85.7178   13.1261 C.ar    1  UNL1        0.1357
      2 N          63.4086   84.2187   13.1748 N.ar    1  UNL1       -0.1992
      3 C          62.8637   83.4277   12.0227 C.ar    1  UNL1        0.2148
      4 N          62.8724   81.9284   12.0715 N.pl3   1  UNL1       -0.3274
      5 N          62.3100   84.1358   10.8219 N.ar    1  UNL1       -0.2138
      6 C          62.3013   85.6350   10.7732 C.ar    1  UNL1        0.0898
      7 C          61.7477   86.3432    9.5723 C.ar    1  UNL1        0.0195
      8 C          61.7390   87.8423    9.5236 C.ar    1  UNL1        0.0047
      9 C          62.2839   88.6333   10.6757 C.ar    1  UNL1        0.0371
     10 C          62.8375   87.9252   11.8766 C.ar    1  UNL1        0.1432
     11 C          62.8462   86.4260   11.9253 C.ar    1  UNL1        0.0831
     12 H          63.2357   81.4636   12.8596 H       1  UNL1        0.1452
     13 H          62.5147   81.4092   11.3153 H       1  UNL1        0.1452
     14 N          63.9448   86.5088   14.2783 N.pl3   1  UNL1       -0.3179
     15 H          64.1375   87.4681   14.1694 H       1  UNL1        0.1482
     16 C          64.1961   85.8383   15.5962 C.3     1  UNL1        0.0882
     17 C          63.0568   85.5865   16.5389 C.3     1  UNL1        0.0212
     18 C          62.9460   88.0500   17.3569 C.3     1  UNL1        0.0001
     19 C          62.7339   86.5866   17.6092 C.3     1  UNL1        0.0017
     20 O          63.3824   88.7162   13.0287 O.3     1  UNL1       -0.4687
     21 C          63.5884   90.1957   12.8920 C.3     1  UNL1        0.2540
     22 C          64.2191   90.9716   14.0101 C.ar    1  UNL1        0.1395
     23 N          63.6232   90.9234   15.3858 N.ar    1  UNL1       -0.2412
     24 C          64.2539   91.6993   16.5039 C.ar    1  UNL1        0.1019
     25 C          65.4806   92.5234   16.2462 C.ar    1  UNL1        0.0607
     26 C          66.0764   92.5716   14.8705 C.ar    1  UNL1        0.1752
     27 C          65.4457   91.7957   13.7524 C.ar    1  UNL1        0.1894
     28 O          67.3030   93.3956   14.6129 O.3     1  UNL1       -0.4683
     29 C          68.3156   93.5940   15.7016 C.3     1  UNL1        0.2526
     30 O          66.0415   91.8438   12.3767 O.3     1  UNL1       -0.4670
     31 C          65.6374   92.9278   11.4219 C.3     1  UNL1        0.2527
@<TRIPOS>BOND
     1    18    19    1
     2    19    17    1
     3    17    16    1
     4    16    14    1
     5    14     1    1
     6     1     2   ar
     7     2     3   ar
     8     3     4    1
     9     3     5   ar
    10     5     6   ar
    11     6     7   ar
    12     7     8   ar
    13     8     9   ar
    14     9    10   ar
    15    10    20    1
    16    20    21    1
    17    21    22    1
    18    22    23   ar
    19    23    24   ar
    20    24    25   ar
    21    25    26   ar
    22    26    28    1
    23    28    29    1
    24    26    27   ar
    25    27    30    1
    26    30    31    1
    27    10    11   ar
    28    11     1   ar
    29    11     6   ar
    30    27    22   ar
    31    14    15    1
    32     4    12    1
    33     4    13    1
@<TRIPOS>MOLECULE
*****
 31 33 0 0 0
SMALL
GASTEIGER

@<TRIPOS>ATOM
      1 C          64.3918   90.4980   14.2031 C.ar    1  UNL1        0.1357
      2 N          65.3133   91.3442   15.0306 N.ar    1  UNL1       -0.1992
      3 C          65.9634   92.5545   14.4285 C.ar    1  UNL1        0.2148
      4 N          66.8850   93.4008   15.2560 N.pl3   1  UNL1       -0.3274
      5 N          65.6920   92.9187   12.9989 N.ar    1  UNL1       -0.2138
      6 C          64.7704   92.0724   12.1714 C.ar    1  UNL1        0.0898
      7 C          64.4990   92.4366   10.7418 C.ar    1  UNL1        0.0195
      8 C          63.5774   91.5904    9.9144 C.ar    1  UNL1        0.0047
      9 C          62.9274   90.3800   10.5165 C.ar    1  UNL1        0.0371
     10 C          63.1988   90.0159   11.9460 C.ar    1  UNL1        0.1432
     11 C          64.1203   90.8621   12.7735 C.ar    1  UNL1        0.0831
     12 H          67.0631   93.1618   16.1943 H       1  UNL1        0.1452
     13 H          67.3117   94.1951   14.8608 H       1  UNL1        0.1452
     14 N          63.7418   89.2877   14.8053 N.pl3   1  UNL1       -0.3179
     15 H          63.8109   88.4157   14.3535 H       1  UNL1        0.1482
     16 C          62.9863   89.4059   16.0957 C.3     1  UNL1        0.0882
     17 C          63.1709   88.3754   17.1699 C.3     1  UNL1        0.0212
     18 C          62.8575   85.8218   17.5319 C.3     1  UNL1        0.0001
     19 C          62.2803   87.1691   17.2130 C.3     1  UNL1        0.0017
     20 O          62.5487   88.8056   12.5482 O.3     1  UNL1       -0.4687
     21 C          61.6196   87.9650   11.7236 C.3     1  UNL1        0.2540
     22 C          62.1535   86.7973   10.9481 C.ar    1  UNL1        0.1395
     23 N          62.1935   86.8475    9.4494 N.ar    1  UNL1       -0.2412
     24 C          62.7274   85.6799    8.6738 C.ar    1  UNL1        0.1019
     25 C          63.2212   84.4619    9.3970 C.ar    1  UNL1        0.0607
     26 C          63.1812   84.4117   10.8956 C.ar    1  UNL1        0.1752
     27 C          62.6473   85.5794   11.6711 C.ar    1  UNL1        0.1894
     28 O          63.6751   83.1939   11.6186 O.3     1  UNL1       -0.4683
     29 C          63.1412   81.8394   11.2577 C.3     1  UNL1        0.2526
     30 O          62.6073   85.5292   13.1697 O.3     1  UNL1       -0.4670
     31 C          63.8611   85.7554   13.9615 C.3     1  UNL1        0.2527
@<TRIPOS>BOND
     1    18    19    1
     2    19    17    1
     3    17    16    1
     4    16    14    1
     5    14     1    1
     6     1     2   ar
     7     2     3   ar
     8     3     4    1
     9     3     5   ar
    10     5     6   ar
    11     6     7   ar
    12     7     8   ar
    13     8     9   ar
    14     9    10   ar
    15    10    20    1
    16    20    21    1
    17    21    22    1
    18    22    23   ar
    19    23    24   ar
    20    24    25   ar
    21    25    26   ar
    22    26    28    1
    23    28    29    1
    24    26    27   ar
    25    27    30    1
    26    30    31    1
    27    10    11   ar
    28    11     1   ar
    29    11     6   ar
    30    27    22   ar
    31    14    15    1
    32     4    12    1
    33     4    13    1
@<TRIPOS>MOLECULE
*****
 31 33 0 0 0
SMALL
GASTEIGER

@<TRIPOS>ATOM
      1 C          64.1978   89.2498   13.6765 C.ar    1  UNL1        0.1357
      2 N          65.0192   90.2665   14.4125 N.ar    1  UNL1       -0.1992
      3 C          65.1805   91.6485   13.8521 C.ar    1  UNL1        0.2148
      4 N          66.0019   92.6651   14.5882 N.pl3   1  UNL1       -0.3274
      5 N          64.5204   92.0138   12.5557 N.ar    1  UNL1       -0.2138
      6 C          63.6989   90.9972   11.8196 C.ar    1  UNL1        0.0898
      7 C          63.0388   91.3625   10.5232 C.ar    1  UNL1        0.0195
      8 C          62.2175   90.3459    9.7872 C.ar    1  UNL1        0.0047
      9 C          62.0562   88.9639   10.3476 C.ar    1  UNL1        0.0371
     10 C          62.7163   88.5985   11.6440 C.ar    1  UNL1        0.1432
     11 C          63.5376   89.6152   12.3800 C.ar    1  UNL1        0.0831
     12 H          66.4351   92.4253   15.4391 H       1  UNL1        0.1452
     13 H          66.1077   93.5722   14.2204 H       1  UNL1        0.1452
     14 N          64.0365   87.8678   14.2370 N.pl3   1  UNL1       -0.3179
     15 H          63.8649   87.1090   13.6337 H       1  UNL1        0.1482
     16 C          64.1367   87.6421   15.7164 C.3     1  UNL1        0.0882
     17 C          63.2117   88.3654   16.6498 C.3     1  UNL1        0.0212
     18 C          62.5654   86.1754   17.8892 C.3     1  UNL1        0.0001
     19 C          62.6830   87.6706   17.8696 C.3     1  UNL1        0.0017
     20 O          62.5550   87.2165   12.2045 O.3     1  UNL1       -0.4687
     21 C          61.9285   86.1378   11.3715 C.3     1  UNL1        0.2540
     22 C          62.6656   84.8542   11.1288 C.ar    1  UNL1        0.1395
     23 N          63.2703   84.5794    9.7838 N.ar    1  UNL1       -0.2412
     24 C          64.0075   83.2957    9.5411 C.ar    1  UNL1        0.1019
     25 C          64.1399   82.2869   10.6434 C.ar    1  UNL1        0.0607
     26 C          63.5352   82.5618   11.9882 C.ar    1  UNL1        0.1752
     27 C          62.7981   83.8454   12.2310 C.ar    1  UNL1        0.1894
     28 O          63.6677   81.5530   13.0904 O.3     1  UNL1       -0.4683
     29 C          62.5502   80.5907   13.3646 C.3     1  UNL1        0.2526
     30 O          62.1934   84.1203   13.5758 O.3     1  UNL1       -0.4670
     31 C          63.0792   84.3207   14.7697 C.3     1  UNL1        0.2527
@<TRIPOS>BOND
     1    18    19    1
     2    19    17    1
     3    17    16    1
     4    16    14    1
     5    14     1    1
     6     1     2   ar
     7     2     3   ar
     8     3     4    1
     9     3     5   ar
    10     5     6   ar
    11     6     7   ar
    12     7     8   ar
    13     8     9   ar
    14     9    10   ar
    15    10    20    1
    16    20    21    1
    17    21    22    1
    18    22    23   ar
    19    23    24   ar
    20    24    25   ar
    21    25    26   ar
    22    26    28    1
    23    28    29    1
    24    26    27   ar
    25    27    30    1
    26    30    31    1
    27    10    11   ar
    28    11     1   ar
    29    11     6   ar
    30    27    22   ar
    31    14    15    1
    32     4    12    1
    33     4    13    1
@<TRIPOS>MOLECULE
*****
 31 33 0 0 0
SMALL
GASTEIGER

@<TRIPOS>ATOM
      1 C          65.5038   91.9612   13.1937 C.ar    1  UNL1        0.1357
      2 N          66.3150   93.1234   12.7026 N.ar    1  UNL1       -0.1992
      3 C          66.0914   93.6637   11.3213 C.ar    1  UNL1        0.2148
      4 N          66.9027   94.8260   10.8302 N.pl3   1  UNL1       -0.3274
      5 N          65.0567   93.0419   10.4311 N.ar    1  UNL1       -0.2138
      6 C          64.2454   91.8797   10.9222 C.ar    1  UNL1        0.0898
      7 C          63.2106   91.2578   10.0320 C.ar    1  UNL1        0.0195
      8 C          62.3994   90.0957   10.5231 C.ar    1  UNL1        0.0047
      9 C          62.6229   89.5553   11.9045 C.ar    1  UNL1        0.0371
     10 C          63.6577   90.1772   12.7947 C.ar    1  UNL1        0.1432
     11 C          64.4689   91.3393   12.3035 C.ar    1  UNL1        0.0831
     12 H          67.5819   95.2341   11.4145 H       1  UNL1        0.1452
     13 H          66.7560   95.1806    9.9236 H       1  UNL1        0.1452
     14 N          65.7274   91.4209   14.5751 N.pl3   1  UNL1       -0.3179
     15 H          65.7561   90.4482   14.7245 H       1  UNL1        0.1482
     16 C          65.9071   92.3625   15.7287 C.3     1  UNL1        0.0882
     17 C          67.2463   92.4884   16.3925 C.3     1  UNL1        0.0212
     18 C          69.2195   94.1210   15.9552 C.3     1  UNL1        0.0001
     19 C          68.4475   92.8885   15.5880 C.3     1  UNL1        0.0017
     20 O          63.8813   89.6368   14.1760 O.3     1  UNL1       -0.4687
     21 C          64.4689   88.2691   14.3603 C.3     1  UNL1        0.2540
     22 C          63.8366   87.3041   15.3188 C.ar    1  UNL1        0.1395
     23 N          63.2354   87.8038   16.5991 N.ar    1  UNL1       -0.2412
     24 C          62.6030   86.8388   17.5576 C.ar    1  UNL1        0.1019
     25 C          62.5718   85.3740   17.2359 C.ar    1  UNL1        0.0607
     26 C          63.1730   84.8743   15.9557 C.ar    1  UNL1        0.1752
     27 C          63.8053   85.8393   14.9972 C.ar    1  UNL1        0.1894
     28 O          63.1418   83.4095   15.6341 O.3     1  UNL1       -0.4683
     29 C          62.0350   82.8504   14.7900 C.3     1  UNL1        0.2526
     30 O          64.4065   85.3396   13.7170 O.3     1  UNL1       -0.4670
     31 C          63.5204   84.9935   12.5572 C.3     1  UNL1        0.2527
@<TRIPOS>BOND
     1    18    19    1
     2    19    17    1
     3    17    16    1
     4    16    14    1
     5    14     1    1
     6     1     2   ar
     7     2     3   ar
     8     3     4    1
     9     3     5   ar
    10     5     6   ar
    11     6     7   ar
    12     7     8   ar
    13     8     9   ar
    14     9    10   ar
    15    10    20    1
    16    20    21    1
    17    21    22    1
    18    22    23   ar
    19    23    24   ar
    20    24    25   ar
    21    25    26   ar
    22    26    28    1
    23    28    29    1
    24    26    27   ar
    25    27    30    1
    26    30    31    1
    27    10    11   ar
    28    11     1   ar
    29    11     6   ar
    30    27    22   ar
    31    14    15    1
    32     4    12    1
    33     4    13    1
@<TRIPOS>MOLECULE
*****
 31 33 0 0 0
SMALL
GASTEIGER

@<TRIPOS>ATOM
      1 C          65.2565   91.7815   13.2593 C.ar    1  UNL1        0.1357
      2 N          66.1363   92.9242   12.8470 N.ar    1  UNL1       -0.1992
      3 C          66.0165   93.5037   11.4687 C.ar    1  UNL1        0.2148
      4 N          66.8965   94.6465   11.0565 N.pl3   1  UNL1       -0.3274
      5 N          65.0168   92.9405   10.5026 N.ar    1  UNL1       -0.2138
      6 C          64.1369   91.7978   10.9148 C.ar    1  UNL1        0.0898
      7 C          63.1372   91.2346    9.9487 C.ar    1  UNL1        0.0195
      8 C          62.2573   90.0919   10.3610 C.ar    1  UNL1        0.0047
      9 C          62.3771   89.5124   11.7393 C.ar    1  UNL1        0.0371
     10 C          63.3768   90.0756   12.7054 C.ar    1  UNL1        0.1432
     11 C          64.2567   91.2183   12.2932 C.ar    1  UNL1        0.0831
     12 H          67.5526   95.0162   11.6906 H       1  UNL1        0.1452
     13 H          66.8179   95.0269   10.1518 H       1  UNL1        0.1452
     14 N          65.3763   91.2020   14.6376 N.pl3   1  UNL1       -0.3179
     15 H          65.3689   90.2256   14.7635 H       1  UNL1        0.1482
     16 C          65.5074   92.1102   15.8242 C.3     1  UNL1        0.0882
     17 C          66.8634   92.4188   16.3863 C.3     1  UNL1        0.0212
     18 C          69.1688   93.2933   15.5675 C.3     1  UNL1        0.0001
     19 C          67.6986   93.5053   15.7763 C.3     1  UNL1        0.0017
     20 O          63.4966   89.4961   14.0838 O.3     1  UNL1       -0.4687
     21 C          64.2338   88.2068   14.2938 C.3     1  UNL1        0.2540
     22 C          63.6701   86.9245   13.7572 C.ar    1  UNL1        0.1395
     23 N          63.2045   86.8477   12.3333 N.ar    1  UNL1       -0.2412
     24 C          62.6408   85.5654   11.7967 C.ar    1  UNL1        0.1019
     25 C          62.5428   84.3599   12.6840 C.ar    1  UNL1        0.0607
     26 C          63.0084   84.4367   14.1078 C.ar    1  UNL1        0.1752
     27 C          63.5721   85.7190   14.6444 C.ar    1  UNL1        0.1894
     28 O          62.9104   83.2312   14.9950 O.3     1  UNL1       -0.4683
     29 C          62.5256   81.9024   14.4150 C.3     1  UNL1        0.2526
     30 O          64.0378   85.7958   16.0682 O.3     1  UNL1       -0.4670
     31 C          63.0756   86.1823   17.1522 C.3     1  UNL1        0.2527
@<TRIPOS>BOND
     1    18    19    1
     2    19    17    1
     3    17    16    1
     4    16    14    1
     5    14     1    1
     6     1     2   ar
     7     2     3   ar
     8     3     4    1
     9     3     5   ar
    10     5     6   ar
    11     6     7   ar
    12     7     8   ar
    13     8     9   ar
    14     9    10   ar
    15    10    20    1
    16    20    21    1
    17    21    22    1
    18    22    23   ar
    19    23    24   ar
    20    24    25   ar
    21    25    26   ar
    22    26    28    1
    23    28    29    1
    24    26    27   ar
    25    27    30    1
    26    30    31    1
    27    10    11   ar
    28    11     1   ar
    29    11     6   ar
    30    27    22   ar
    31    14    15    1
    32     4    12    1
    33     4    13    1
