@<TRIPOS>MOLECULE
*****
 36 41 0 0 0
SMALL
GASTEIGER

@<TRIPOS>ATOM
      1 C          63.7551   87.5968   13.4821 C.2     1  UNL1        0.2568
      2 O          64.6697   88.4251   14.3351 O.2     1  UNL1       -0.2719
      3 N          63.1063   88.2011   12.2723 N.am    1  UNL1       -0.2511
      4 C          62.2108   87.2874   11.4892 C.3     1  UNL1        0.1276
      5 C          61.4266   87.5860   10.2459 C.ar    1  UNL1        0.0297
      6 C          60.6560   86.3855    9.7823 C.ar    1  UNL1        0.0018
      7 C          59.8031   86.4712    8.5514 C.ar    1  UNL1        0.0205
      8 C          59.7207   87.7574    7.7841 C.ar    1  UNL1        0.1003
      9 N          60.4913   88.9580    8.2476 N.ar    1  UNL1       -0.2294
     10 C          61.3442   88.8723    9.4785 C.ar    1  UNL1        0.1297
     11 N          62.0257   90.1775    9.7650 N.pl3   1  UNL1       -0.2972
     12 C          62.9579   90.5189   10.8895 C.ar    1  UNL1        0.0633
     13 C          63.4179   91.9441   10.8066 C.ar    1  UNL1        0.0172
     14 C          64.3588   92.4899   11.8395 C.ar    1  UNL1        0.0159
     15 C          64.8396   91.6104   12.9553 C.ar    1  UNL1        0.0493
     16 C          64.3797   90.1850   13.0382 C.ar    1  UNL1        0.0307
     17 C          63.4388   89.6392   12.0053 C.ar    1  UNL1        0.0689
     18 H          61.8361   90.9065    9.1311 H       1  UNL1        0.1536
     19 N          66.4858   92.0639   15.0169 N.pl3   1  UNL1       -0.3043
     20 C          67.7594   91.9968   14.5554 C.3     1  UNL1        0.1204
     21 C          68.5485   91.9659   14.3221 C.3     1  UNL1        0.1350
     22 C          68.2901   92.2550   15.7711 C.3     1  UNL1        0.0331
     23 C          66.8815   92.3293   16.2815 C.3     1  UNL1        0.0248
     24 C          65.7314   92.1144   15.3429 C.3     1  UNL1        0.1025
     25 C          65.9898   91.8253   13.8939 C.3     1  UNL1        0.1617
     26 O          67.3983   91.7510   13.3836 O.3     1  UNL1       -0.3527
     27 C          62.9578   83.2994   14.5528 C.3     1  UNL1        0.1447
     28 C          63.3487   83.6629   13.1511 C.3     1  UNL1        0.0352
     29 C          63.6145   85.0954   12.7942 C.3     1  UNL1        0.0416
     30 C          63.4893   86.1644   13.8390 C.3     1  UNL1        0.1915
     31 O          63.0984   85.8008   15.2407 O.3     1  UNL1       -0.3445
     32 C          62.8326   84.3683   15.5977 C.3     1  UNL1        0.1720
     33 O          62.6920   81.8670   14.9097 O.3     1  UNL1       -0.3562
     34 C          60.4793   80.7544   14.1247 C.3     1  UNL1        0.0320
     35 C          61.9522   80.9803   13.9524 C.3     1  UNL1        0.1154
     36 C          62.6852   80.3195   12.8228 C.3     1  UNL1        0.0320
@<TRIPOS>BOND
     1    34    35    1
     2    35    36    1
     3    35    33    1
     4    27    33    1
     5    27    28    1
     6    28    29    1
     7    29    30    1
     8    30     1    1
     9     1     2    2
    10     1     3   am
    11     3     4    1
    12     4     5    1
    13     5     6   ar
    14     6     7   ar
    15     7     8   ar
    16     8     9   ar
    17     9    10   ar
    18    10    11    1
    19    11    12    1
    20    12    13   ar
    21    13    14   ar
    22    14    15   ar
    23    15    19    1
    24    19    20    1
    25    20    21    1
    26    21    22    1
    27    22    23    1
    28    23    24    1
    29    24    25    1
    30    25    26    1
    31    15    16   ar
    32    16    17   ar
    33    30    31    1
    34    31    32    1
    35    32    27    1
    36    17     3    1
    37    10     5   ar
    38    17    12   ar
    39    24    19    1
    40    26    21    1
    41    11    18    1
@<TRIPOS>MOLECULE
*****
 36 41 0 0 0
SMALL
GASTEIGER

@<TRIPOS>ATOM
      1 C          61.7444   86.1332   10.9323 C.2     1  UNL1        0.2568
      2 O          61.6448   84.6473   11.1123 O.2     1  UNL1       -0.2719
      3 N          62.5957   86.9459   11.8622 N.am    1  UNL1       -0.2511
      4 C          62.6259   88.4215   11.5948 C.3     1  UNL1        0.1276
      5 C          63.3721   89.4913   12.3356 C.ar    1  UNL1        0.0297
      6 C          63.1266   90.8449   11.7378 C.ar    1  UNL1        0.0018
      7 C          63.7815   92.0568   12.3314 C.ar    1  UNL1        0.0205
      8 C          64.6819   91.9151   13.5227 C.ar    1  UNL1        0.1003
      9 N          64.9274   90.5614   14.1205 N.ar    1  UNL1       -0.2294
     10 C          64.2724   89.3495   13.5269 C.ar    1  UNL1        0.1297
     11 N          64.6490   88.1030   14.2716 N.pl3   1  UNL1       -0.2972
     12 C          64.2182   86.6905   14.0089 C.ar    1  UNL1        0.0633
     13 C          64.8289   85.7389   14.9946 C.ar    1  UNL1        0.0172
     14 C          64.5259   84.2724   14.9080 C.ar    1  UNL1        0.0159
     15 C          63.6121   83.7574   13.8357 C.ar    1  UNL1        0.0493
     16 C          63.0013   84.7090   12.8500 C.ar    1  UNL1        0.0307
     17 C          63.3044   86.1755   12.9366 C.ar    1  UNL1        0.0689
     18 H          65.2596   88.2287   15.0335 H       1  UNL1        0.1536
     19 N          62.7535   81.2931   13.2394 N.pl3   1  UNL1       -0.3043
     20 C          61.5826   81.0906   13.8931 C.3     1  UNL1        0.1204
     21 C          60.8701   80.9214   14.2696 C.3     1  UNL1        0.1350
     22 C          61.4416   79.8394   13.4021 C.3     1  UNL1        0.0331
     23 C          62.7367   80.0634   12.6791 C.3     1  UNL1        0.0248
     24 C          63.4602   81.3694   12.8236 C.3     1  UNL1        0.1025
     25 C          62.8886   82.4514   13.6912 C.3     1  UNL1        0.1617
     26 O          61.5936   82.2274   14.4141 O.3     1  UNL1       -0.3527
     27 C          59.4891   88.1524    7.6028 C.3     1  UNL1        0.1447
     28 C          59.9025   86.7171    7.4658 C.3     1  UNL1        0.0352
     29 C          60.6543   86.0440    8.5756 C.3     1  UNL1        0.0416
     30 C          60.9926   86.8062    9.8225 C.3     1  UNL1        0.1915
     31 O          60.5791   88.2416    9.9594 O.3     1  UNL1       -0.3445
     32 C          59.8273   88.9147    8.8496 C.3     1  UNL1        0.1720
     33 O          58.7373   88.8255    6.4930 O.3     1  UNL1       -0.3562
     34 C          58.2860   91.1886    5.5120 C.3     1  UNL1        0.0320
     35 C          59.2489   90.1103    5.9118 C.3     1  UNL1        0.1154
     36 C          60.7235   90.3166    5.7305 C.3     1  UNL1        0.0320
@<TRIPOS>BOND
     1    34    35    1
     2    35    36    1
     3    35    33    1
     4    27    33    1
     5    27    28    1
     6    28    29    1
     7    29    30    1
     8    30     1    1
     9     1     2    2
    10     1     3   am
    11     3     4    1
    12     4     5    1
    13     5     6   ar
    14     6     7   ar
    15     7     8   ar
    16     8     9   ar
    17     9    10   ar
    18    10    11    1
    19    11    12    1
    20    12    13   ar
    21    13    14   ar
    22    14    15   ar
    23    15    19    1
    24    19    20    1
    25    20    21    1
    26    21    22    1
    27    22    23    1
    28    23    24    1
    29    24    25    1
    30    25    26    1
    31    15    16   ar
    32    16    17   ar
    33    30    31    1
    34    31    32    1
    35    32    27    1
    36    17     3    1
    37    10     5   ar
    38    17    12   ar
    39    24    19    1
    40    26    21    1
    41    11    18    1
@<TRIPOS>MOLECULE
*****
 36 41 0 0 0
SMALL
GASTEIGER

@<TRIPOS>ATOM
      1 C          62.1992   90.0647   10.1425 C.2     1  UNL1        0.2568
      2 O          61.4719   90.7774    9.0411 O.2     1  UNL1       -0.2719
      3 N          62.0150   88.5880   10.3301 N.am    1  UNL1       -0.2511
      4 C          62.7875   87.9740   11.4597 C.3     1  UNL1        0.1276
      5 C          62.8185   86.5408   11.9016 C.ar    1  UNL1        0.0297
      6 C          63.7267   86.3501   13.0800 C.ar    1  UNL1        0.0018
      7 C          63.9009   84.9863   13.6797 C.ar    1  UNL1        0.0205
      8 C          63.1668   83.8132   13.1009 C.ar    1  UNL1        0.1003
      9 N          62.2586   84.0039   11.9225 N.ar    1  UNL1       -0.2294
     10 C          62.0844   85.3677   11.3228 C.ar    1  UNL1        0.1297
     11 N          61.1381   85.3381   10.1593 N.pl3   1  UNL1       -0.2972
     12 C          60.6922   86.4741    9.2872 C.ar    1  UNL1        0.0633
     13 C          59.7337   86.0104    8.2307 C.ar    1  UNL1        0.0172
     14 C          59.1654   86.9931    7.2502 C.ar    1  UNL1        0.0159
     15 C          59.5556   88.4394    7.3262 C.ar    1  UNL1        0.0493
     16 C          60.5141   88.9031    8.3828 C.ar    1  UNL1        0.0307
     17 C          61.0824   87.9204    9.3632 C.ar    1  UNL1        0.0689
     18 H          60.7597   84.4563    9.9389 H       1  UNL1        0.1536
     19 N          58.8557   90.5673    5.8605 N.pl3   1  UNL1       -0.3043
     20 C          59.9598   91.0015    5.2033 C.3     1  UNL1        0.1204
     21 C          60.6017   91.3016    4.7839 C.3     1  UNL1        0.1350
     22 C          59.2933   92.0122    4.6030 C.3     1  UNL1        0.0331
     23 C          58.0721   91.5320    5.3298 C.3     1  UNL1        0.0248
     24 C          58.1596   90.3410    6.2376 C.3     1  UNL1        0.1025
     25 C          59.4681   89.6304    6.4185 C.3     1  UNL1        0.1617
     26 O          60.6892   90.1107    5.6916 O.3     1  UNL1       -0.3527
     27 C          64.9341   92.3571   12.8839 C.3     1  UNL1        0.1447
     28 C          65.0293   92.5471   11.3991 C.3     1  UNL1        0.0352
     29 C          64.1177   91.7830   10.4853 C.3     1  UNL1        0.0416
     30 C          63.1109   90.8288   11.0563 C.3     1  UNL1        0.1915
     31 O          63.0157   90.6389   12.5412 O.3     1  UNL1       -0.3445
     32 C          63.9273   91.4030   13.4551 C.3     1  UNL1        0.1720
     33 O          65.8457   93.1212   13.7977 O.3     1  UNL1       -0.3562
     34 C          67.3108   92.4815   15.8458 C.3     1  UNL1        0.0320
     35 C          67.0655   92.4586   14.3662 C.3     1  UNL1        0.1154
     36 C          68.0399   91.7730   13.4549 C.3     1  UNL1        0.0320
@<TRIPOS>BOND
     1    34    35    1
     2    35    36    1
     3    35    33    1
     4    27    33    1
     5    27    28    1
     6    28    29    1
     7    29    30    1
     8    30     1    1
     9     1     2    2
    10     1     3   am
    11     3     4    1
    12     4     5    1
    13     5     6   ar
    14     6     7   ar
    15     7     8   ar
    16     8     9   ar
    17     9    10   ar
    18    10    11    1
    19    11    12    1
    20    12    13   ar
    21    13    14   ar
    22    14    15   ar
    23    15    19    1
    24    19    20    1
    25    20    21    1
    26    21    22    1
    27    22    23    1
    28    23    24    1
    29    24    25    1
    30    25    26    1
    31    15    16   ar
    32    16    17   ar
    33    30    31    1
    34    31    32    1
    35    32    27    1
    36    17     3    1
    37    10     5   ar
    38    17    12   ar
    39    24    19    1
    40    26    21    1
    41    11    18    1
