@<TRIPOS>MOLECULE
*****
 32 36 0 0 0
SMALL
GASTEIGER

@<TRIPOS>ATOM
      1 C          64.4179   90.7361   13.4062 C.3     1  UNL1        0.1070
      2 C          63.5826   91.3059   12.2983 C.3     1  UNL1        0.0633
      3 C          62.7973   90.1843   11.6858 C.3     1  UNL1        0.1888
      4 O          61.8316   90.3046   10.5443 O.3     1  UNL1       -0.3757
      5 C          63.1472   88.9212   12.4152 C.2     1  UNL1        0.2530
      6 O          62.5928   87.5566   12.1313 O.2     1  UNL1       -0.2722
      7 N          64.1487   89.2622   13.4785 N.am    1  UNL1       -0.2711
      8 H          61.4594   89.4319   10.3424 H       1  UNL1        0.2110
      9 C          64.9427   91.8800   15.6792 C.ar    1  UNL1        0.1392
     10 C          65.8821   92.6489   16.5602 C.ar    1  UNL1        0.0368
     11 C          67.2362   93.0430   16.0492 C.ar    1  UNL1        0.0062
     12 C          67.6508   92.6681   14.6572 C.ar    1  UNL1        0.0368
     13 C          66.7114   91.8991   13.7762 C.ar    1  UNL1        0.1392
     14 C          65.3573   91.5050   14.2872 C.ar    1  UNL1        0.0637
     15 C          63.3963   90.1557   16.8561 C.3     1  UNL1        0.2525
     16 O          63.5886   91.4858   16.1901 O.3     1  UNL1       -0.4716
     17 O          67.1261   91.5243   12.3843 O.3     1  UNL1       -0.4716
     18 C          66.9766   92.5122   11.2655 C.3     1  UNL1        0.2525
     19 C          64.7718   88.2985   14.4445 C.3     1  UNL1        0.1204
     20 C          64.1322   86.9641   14.6906 C.ar    1  UNL1       -0.0021
     21 C          63.4873   86.6741   16.0134 C.ar    1  UNL1        0.0005
     22 C          62.8478   85.3398   16.2594 C.ar    1  UNL1        0.0372
     23 C          62.8532   84.2955   15.1826 C.ar    1  UNL1        0.1453
     24 O          62.3057   82.8998   15.1351 O.2     1  UNL1       -0.4535
     25 C          62.6122   82.3273   13.7830 C.ar    1  UNL1        0.1453
     26 C          62.3155   80.9919   13.1677 C.ar    1  UNL1        0.0375
     27 C          62.7558   80.6983   11.7642 C.ar    1  UNL1        0.0031
     28 C          63.4928   81.7402   10.9760 C.ar    1  UNL1        0.0002
     29 C          63.7895   83.0756   11.5912 C.ar    1  UNL1        0.0031
     30 C          63.3492   83.3692   12.9948 C.ar    1  UNL1        0.0375
     31 C          63.4981   84.5856   13.8597 C.ar    1  UNL1        0.0372
     32 C          64.1376   85.9199   13.6137 C.ar    1  UNL1        0.0005
@<TRIPOS>BOND
     1    15    16    1
     2    16     9    1
     3     9    10   ar
     4    10    11   ar
     5    11    12   ar
     6    12    13   ar
     7    13    17    1
     8    17    18    1
     9    13    14   ar
    10     1    14    1
    11     1     2    1
    12     2     3    1
    13     3     4    1
    14     3     5    1
    15     5     6    2
    16     5     7   am
    17     7    19    1
    18    19    20    1
    19    20    21   ar
    20    21    22   ar
    21    22    23   ar
    22    23    24   ar
    23    24    25   ar
    24    25    26   ar
    25    26    27   ar
    26    27    28   ar
    27    28    29   ar
    28    29    30   ar
    29    30    31   ar
    30    31    32   ar
    31    14     9   ar
    32     7     1    1
    33    32    20   ar
    34    31    23   ar
    35    30    25   ar
    36     4     8    1
@<TRIPOS>MOLECULE
*****
 32 36 0 0 0
SMALL
GASTEIGER

@<TRIPOS>ATOM
      1 C          64.4227   90.7692   13.3706 C.3     1  UNL1        0.1070
      2 C          63.5805   91.3359   12.2663 C.3     1  UNL1        0.0633
      3 C          62.7916   90.2126   11.6616 C.3     1  UNL1        0.1888
      4 O          61.8189   90.3298   10.5257 O.3     1  UNL1       -0.3757
      5 C          63.1462   88.9515   12.3921 C.2     1  UNL1        0.2530
      6 O          62.5904   87.5861   12.1152 O.2     1  UNL1       -0.2722
      7 N          64.1542   89.2954   13.4483 N.am    1  UNL1       -0.2711
      8 H          61.4456   89.4566   10.3283 H       1  UNL1        0.2110
      9 C          66.7173   91.9358   13.7226 C.ar    1  UNL1        0.1392
     10 C          67.6620   92.7072   14.5957 C.ar    1  UNL1        0.0368
     11 C          67.2568   93.0834   15.9901 C.ar    1  UNL1        0.0062
     12 C          65.9069   92.6882   16.5113 C.ar    1  UNL1        0.0368
     13 C          64.9622   91.9167   15.6381 C.ar    1  UNL1        0.1392
     14 C          65.3674   91.5405   14.2437 C.ar    1  UNL1        0.0637
     15 C          66.9876   92.5545   11.2138 C.3     1  UNL1        0.2525
     16 O          67.1224   91.5595   12.3282 O.3     1  UNL1       -0.4716
     17 O          63.6123   91.5215   16.1593 O.3     1  UNL1       -0.4716
     18 C          63.4232   90.1858   16.8149 C.3     1  UNL1        0.2525
     19 C          64.7834   88.3343   14.4130 C.3     1  UNL1        0.1204
     20 C          64.1372   87.0068   14.6782 C.ar    1  UNL1       -0.0021
     21 C          63.4955   86.7371   16.0069 C.ar    1  UNL1        0.0005
     22 C          62.8494   85.4096   16.2720 C.ar    1  UNL1        0.0372
     23 C          62.8450   84.3519   15.2084 C.ar    1  UNL1        0.1453
     24 O          62.2894   82.9588   15.1805 O.2     1  UNL1       -0.4535
     25 C          62.5878   82.3676   13.8346 C.ar    1  UNL1        0.1453
     26 C          62.2813   81.0263   13.2372 C.ar    1  UNL1        0.0375
     27 C          62.7148   80.7126   11.8359 C.ar    1  UNL1        0.0031
     28 C          63.4547   81.7403   11.0320 C.ar    1  UNL1        0.0002
     29 C          63.7612   83.0816   11.6293 C.ar    1  UNL1        0.0031
     30 C          63.3277   83.3953   13.0306 C.ar    1  UNL1        0.0375
     31 C          63.4866   84.6216   13.8797 C.ar    1  UNL1        0.0372
     32 C          64.1328   85.9491   13.6146 C.ar    1  UNL1        0.0005
@<TRIPOS>BOND
     1    15    16    1
     2    16     9    1
     3     9    10   ar
     4    10    11   ar
     5    11    12   ar
     6    12    13   ar
     7    13    17    1
     8    17    18    1
     9    13    14   ar
    10     1    14    1
    11     1     2    1
    12     2     3    1
    13     3     4    1
    14     3     5    1
    15     5     6    2
    16     5     7   am
    17     7    19    1
    18    19    20    1
    19    20    21   ar
    20    21    22   ar
    21    22    23   ar
    22    23    24   ar
    23    24    25   ar
    24    25    26   ar
    25    26    27   ar
    26    27    28   ar
    27    28    29   ar
    28    29    30   ar
    29    30    31   ar
    30    31    32   ar
    31    14     9   ar
    32     7     1    1
    33    32    20   ar
    34    31    23   ar
    35    30    25   ar
    36     4     8    1
@<TRIPOS>MOLECULE
*****
 32 36 0 0 0
SMALL
GASTEIGER

@<TRIPOS>ATOM
      1 C          61.4413   86.3156    9.8677 C.3     1  UNL1        0.1070
      2 C          60.3871   86.2860    8.8011 C.3     1  UNL1        0.0633
      3 C          59.6128   87.5683    8.8787 C.3     1  UNL1        0.1888
      4 O          58.4645   87.9597    7.9966 O.3     1  UNL1       -0.3757
      5 C          60.1884   88.3906    9.9934 C.2     1  UNL1        0.2530
      6 O          59.7169   89.7486   10.4216 O.2     1  UNL1       -0.2722
      7 N          61.3185   87.6164   10.6046 N.am    1  UNL1       -0.2711
      8 H          58.1421   88.8371    8.2557 H       1  UNL1        0.2110
      9 C          63.2717   84.6722    9.0319 C.ar    1  UNL1        0.1392
     10 C          64.2729   83.5910    9.3124 C.ar    1  UNL1        0.0368
     11 C          64.4448   83.0721   10.7092 C.ar    1  UNL1        0.0062
     12 C          63.6155   83.6344   11.8256 C.ar    1  UNL1        0.0368
     13 C          62.6143   84.7156   11.5451 C.ar    1  UNL1        0.1392
     14 C          62.4424   85.2345   10.1482 C.ar    1  UNL1        0.0637
     15 C          62.3448   84.3824    6.6222 C.3     1  UNL1        0.2525
     16 O          63.0998   85.1911    7.6351 O.3     1  UNL1       -0.4716
     17 O          61.7851   85.2778   12.6614 O.3     1  UNL1       -0.4716
     18 C          62.1056   84.9267   14.0840 C.3     1  UNL1        0.2525
     19 C          62.1754   88.0643   11.7514 C.3     1  UNL1        0.1204
     20 C          62.9445   89.3487   11.6562 C.ar    1  UNL1       -0.0021
     21 C          62.8868   90.1660   10.3998 C.ar    1  UNL1        0.0005
     22 C          63.6558   91.4503   10.3046 C.ar    1  UNL1        0.0372
     23 C          64.4826   91.9173   11.4658 C.ar    1  UNL1        0.1453
     24 O          65.3410   93.1315   11.6629 O.2     1  UNL1       -0.4535
     25 C          65.9292   93.0646   13.0412 C.ar    1  UNL1        0.1453
     26 C          66.8515   93.9847   13.7846 C.ar    1  UNL1        0.0375
     27 C          67.2789   93.6492   15.1827 C.ar    1  UNL1        0.0031
     28 C          66.7840   92.3936   15.8374 C.ar    1  UNL1        0.0002
     29 C          65.8617   91.4735   15.0940 C.ar    1  UNL1        0.0031
     30 C          65.4343   91.8090   13.6959 C.ar    1  UNL1        0.0375
     31 C          64.5403   91.1000   12.7222 C.ar    1  UNL1        0.0372
     32 C          63.7712   89.8157   12.8174 C.ar    1  UNL1        0.0005
@<TRIPOS>BOND
     1    15    16    1
     2    16     9    1
     3     9    10   ar
     4    10    11   ar
     5    11    12   ar
     6    12    13   ar
     7    13    17    1
     8    17    18    1
     9    13    14   ar
    10     1    14    1
    11     1     2    1
    12     2     3    1
    13     3     4    1
    14     3     5    1
    15     5     6    2
    16     5     7   am
    17     7    19    1
    18    19    20    1
    19    20    21   ar
    20    21    22   ar
    21    22    23   ar
    22    23    24   ar
    23    24    25   ar
    24    25    26   ar
    25    26    27   ar
    26    27    28   ar
    27    28    29   ar
    28    29    30   ar
    29    30    31   ar
    30    31    32   ar
    31    14     9   ar
    32     7     1    1
    33    32    20   ar
    34    31    23   ar
    35    30    25   ar
    36     4     8    1
@<TRIPOS>MOLECULE
*****
 32 36 0 0 0
SMALL
GASTEIGER

@<TRIPOS>ATOM
      1 C          61.4423   86.3098    9.8609 C.3     1  UNL1        0.1070
      2 C          60.3913   86.2775    8.7912 C.3     1  UNL1        0.0633
      3 C          59.6151   87.5589    8.8649 C.3     1  UNL1        0.1888
      4 O          58.4689   87.9477    7.9789 O.3     1  UNL1       -0.3757
      5 C          60.1864   88.3833    9.9803 C.2     1  UNL1        0.2530
      6 O          59.7118   89.7412   10.4054 O.2     1  UNL1       -0.2722
      7 N          61.3156   87.6114   10.5958 N.am    1  UNL1       -0.2711
      8 H          58.1447   88.8250    8.2360 H       1  UNL1        0.2110
      9 C          62.6102   84.7112   11.5433 C.ar    1  UNL1        0.1392
     10 C          63.6119   83.6316   11.8282 C.ar    1  UNL1        0.0368
     11 C          64.4473   83.0712   10.7155 C.ar    1  UNL1        0.0062
     12 C          64.2811   83.5903    9.3181 C.ar    1  UNL1        0.0368
     13 C          63.2794   84.6698    9.0332 C.ar    1  UNL1        0.1392
     14 C          62.4439   85.2303   10.1458 C.ar    1  UNL1        0.0637
     15 C          62.0917   84.9239   14.0801 C.3     1  UNL1        0.2525
     16 O          61.7748   85.2716   12.6559 O.3     1  UNL1       -0.4716
     17 O          63.1131   85.1889    7.6357 O.3     1  UNL1       -0.4716
     18 C          62.3583   84.3824    6.6210 C.3     1  UNL1        0.2525
     19 C          62.1685   88.0618   11.7446 C.3     1  UNL1        0.1204
     20 C          62.9389   89.3453   11.6487 C.ar    1  UNL1       -0.0021
     21 C          62.8828   90.1616   10.3915 C.ar    1  UNL1        0.0005
     22 C          63.6533   91.4450   10.2957 C.ar    1  UNL1        0.0372
     23 C          64.4798   91.9122   11.4570 C.ar    1  UNL1        0.1453
     24 O          65.3393   93.1257   11.6536 O.2     1  UNL1       -0.4535
     25 C          65.9266   93.0594   13.0322 C.ar    1  UNL1        0.1453
     26 C          66.8493   93.9792   13.7754 C.ar    1  UNL1        0.0375
     27 C          67.2755   93.6446   15.1741 C.ar    1  UNL1        0.0031
     28 C          66.7790   92.3901   15.8296 C.ar    1  UNL1        0.0002
     29 C          65.8562   91.4702   15.0864 C.ar    1  UNL1        0.0031
     30 C          65.4300   91.8049   13.6878 C.ar    1  UNL1        0.0375
     31 C          64.5358   91.0959   12.7142 C.ar    1  UNL1        0.0372
     32 C          63.7654   89.8125   12.8100 C.ar    1  UNL1        0.0005
@<TRIPOS>BOND
     1    15    16    1
     2    16     9    1
     3     9    10   ar
     4    10    11   ar
     5    11    12   ar
     6    12    13   ar
     7    13    17    1
     8    17    18    1
     9    13    14   ar
    10     1    14    1
    11     1     2    1
    12     2     3    1
    13     3     4    1
    14     3     5    1
    15     5     6    2
    16     5     7   am
    17     7    19    1
    18    19    20    1
    19    20    21   ar
    20    21    22   ar
    21    22    23   ar
    22    23    24   ar
    23    24    25   ar
    24    25    26   ar
    25    26    27   ar
    26    27    28   ar
    27    28    29   ar
    28    29    30   ar
    29    30    31   ar
    30    31    32   ar
    31    14     9   ar
    32     7     1    1
    33    32    20   ar
    34    31    23   ar
    35    30    25   ar
    36     4     8    1
@<TRIPOS>MOLECULE
*****
 32 36 0 0 0
SMALL
GASTEIGER

@<TRIPOS>ATOM
      1 C          62.0404   86.3890   10.9601 C.3     1  UNL1        0.1070
      2 C          60.9774   86.7694    9.9725 C.3     1  UNL1        0.0633
      3 C          60.5873   88.1935   10.2368 C.3     1  UNL1        0.1888
      4 O          59.5563   88.9797    9.4825 O.3     1  UNL1       -0.3757
      5 C          61.4091   88.6933   11.3877 C.2     1  UNL1        0.2530
      6 O          61.3444   90.0670   11.9865 O.2     1  UNL1       -0.2722
      7 N          62.3072   87.5781   11.8348 N.am    1  UNL1       -0.2711
      8 H          59.4968   89.8741    9.8532 H       1  UNL1        0.2110
      9 C          62.6996   84.2953   12.3501 C.ar    1  UNL1        0.1392
     10 C          63.3768   82.9603   12.4462 C.ar    1  UNL1        0.0368
     11 C          64.0720   82.3842   11.2485 C.ar    1  UNL1        0.0062
     12 C          64.0900   83.1429    9.9546 C.ar    1  UNL1        0.0368
     13 C          63.4128   84.4778    9.8585 C.ar    1  UNL1        0.1392
     14 C          62.7175   85.0541   11.0562 C.ar    1  UNL1        0.0637
     15 C          62.2432   84.2854   14.9077 C.3     1  UNL1        0.2525
     16 O          62.0044   84.8716   13.5478 O.3     1  UNL1       -0.4716
     17 O          63.4308   85.2365    8.5647 O.3     1  UNL1       -0.4716
     18 C          62.5403   84.8129    7.4344 C.3     1  UNL1        0.2525
     19 C          63.2981   87.6408   12.9591 C.3     1  UNL1        0.1204
     20 C          63.8678   88.9619   13.3839 C.ar    1  UNL1       -0.0021
     21 C          63.9931   89.2906   14.8421 C.ar    1  UNL1        0.0005
     22 C          64.5628   90.6116   15.2669 C.ar    1  UNL1        0.0372
     23 C          65.0070   91.6039   14.2335 C.ar    1  UNL1        0.1453
     24 O          65.6025   92.9757   14.3499 O.2     1  UNL1       -0.4535
     25 C          65.8451   93.4949   12.9637 C.ar    1  UNL1        0.1453
     26 C          66.4142   94.7888   12.4618 C.ar    1  UNL1        0.0375
     27 C          66.5377   95.0318   10.9868 C.ar    1  UNL1        0.0031
     28 C          66.0922   93.9808   10.0137 C.ar    1  UNL1        0.0002
     29 C          65.5232   92.6869   10.5155 C.ar    1  UNL1        0.0031
     30 C          65.3996   92.4440   11.9905 C.ar    1  UNL1        0.0375
     31 C          64.8817   91.2753   12.7753 C.ar    1  UNL1        0.0372
     32 C          64.3120   89.9543   12.3506 C.ar    1  UNL1        0.0005
@<TRIPOS>BOND
     1    15    16    1
     2    16     9    1
     3     9    10   ar
     4    10    11   ar
     5    11    12   ar
     6    12    13   ar
     7    13    17    1
     8    17    18    1
     9    13    14   ar
    10     1    14    1
    11     1     2    1
    12     2     3    1
    13     3     4    1
    14     3     5    1
    15     5     6    2
    16     5     7   am
    17     7    19    1
    18    19    20    1
    19    20    21   ar
    20    21    22   ar
    21    22    23   ar
    22    23    24   ar
    23    24    25   ar
    24    25    26   ar
    25    26    27   ar
    26    27    28   ar
    27    28    29   ar
    28    29    30   ar
    29    30    31   ar
    30    31    32   ar
    31    14     9   ar
    32     7     1    1
    33    32    20   ar
    34    31    23   ar
    35    30    25   ar
    36     4     8    1
@<TRIPOS>MOLECULE
*****
 32 36 0 0 0
SMALL
GASTEIGER

@<TRIPOS>ATOM
      1 C          62.0250   86.4143   10.9828 C.3     1  UNL1        0.1070
      2 C          60.9551   86.7942   10.0026 C.3     1  UNL1        0.0633
      3 C          60.5669   88.2184   10.2687 C.3     1  UNL1        0.1888
      4 O          59.5306   89.0042    9.5213 O.3     1  UNL1       -0.3757
      5 C          61.3969   88.7188   11.4135 C.2     1  UNL1        0.2530
      6 O          61.3364   90.0929   12.0119 O.2     1  UNL1       -0.2722
      7 N          62.2980   87.6039   11.8549 N.am    1  UNL1       -0.2711
      8 H          59.4737   89.8988    9.8919 H       1  UNL1        0.2110
      9 C          63.3992   84.5075    9.8757 C.ar    1  UNL1        0.1392
     10 C          64.0770   83.1725    9.9678 C.ar    1  UNL1        0.0368
     11 C          64.0585   82.4096   11.2591 C.ar    1  UNL1        0.0062
     12 C          63.3622   82.9815   12.4583 C.ar    1  UNL1        0.0368
     13 C          62.6843   84.3164   12.3662 C.ar    1  UNL1        0.1392
     14 C          62.7028   85.0794   11.0749 C.ar    1  UNL1        0.0637
     15 C          62.6289   84.7746    7.4089 C.3     1  UNL1        0.2525
     16 O          63.4176   85.2705    8.5844 O.3     1  UNL1       -0.4716
     17 O          61.9880   84.8883   13.5654 O.3     1  UNL1       -0.4716
     18 C          62.3387   84.4004   14.9398 C.3     1  UNL1        0.2525
     19 C          63.2969   87.6673   12.9721 C.3     1  UNL1        0.1204
     20 C          63.8782   88.9872   13.3845 C.ar    1  UNL1       -0.0021
     21 C          64.0213   89.3220   14.8396 C.ar    1  UNL1        0.0005
     22 C          64.6025   90.6418   15.2519 C.ar    1  UNL1        0.0372
     23 C          65.0408   91.6270   14.2091 C.ar    1  UNL1        0.1453
     24 O          65.6448   92.9961   14.3125 O.2     1  UNL1       -0.4535
     25 C          65.8751   93.5075   12.9213 C.ar    1  UNL1        0.1453
     26 C          66.4455   94.7960   12.4072 C.ar    1  UNL1        0.0375
     27 C          66.5542   95.0314   10.9298 C.ar    1  UNL1        0.0031
     28 C          66.0925   93.9783    9.9665 C.ar    1  UNL1        0.0002
     29 C          65.5221   92.6898   10.4806 C.ar    1  UNL1        0.0031
     30 C          65.4134   92.4544   11.9580 C.ar    1  UNL1        0.0375
     31 C          64.8978   91.2922   12.7539 C.ar    1  UNL1        0.0372
     32 C          64.3165   89.9723   12.3416 C.ar    1  UNL1        0.0005
@<TRIPOS>BOND
     1    15    16    1
     2    16     9    1
     3     9    10   ar
     4    10    11   ar
     5    11    12   ar
     6    12    13   ar
     7    13    17    1
     8    17    18    1
     9    13    14   ar
    10     1    14    1
    11     1     2    1
    12     2     3    1
    13     3     4    1
    14     3     5    1
    15     5     6    2
    16     5     7   am
    17     7    19    1
    18    19    20    1
    19    20    21   ar
    20    21    22   ar
    21    22    23   ar
    22    23    24   ar
    23    24    25   ar
    24    25    26   ar
    25    26    27   ar
    26    27    28   ar
    27    28    29   ar
    28    29    30   ar
    29    30    31   ar
    30    31    32   ar
    31    14     9   ar
    32     7     1    1
    33    32    20   ar
    34    31    23   ar
    35    30    25   ar
    36     4     8    1
@<TRIPOS>MOLECULE
*****
 32 36 0 0 0
SMALL
GASTEIGER

@<TRIPOS>ATOM
      1 C          62.5513   86.1346   11.8090 C.3     1  UNL1        0.1070
      2 C          62.7686   84.7890   12.4353 C.3     1  UNL1        0.0633
      3 C          63.5971   84.9810   13.6709 C.3     1  UNL1        0.1888
      4 O          64.0511   83.8988   14.6050 O.3     1  UNL1       -0.3757
      5 C          63.8919   86.4453   13.8083 C.2     1  UNL1        0.2530
      6 O          64.6924   87.0845   14.9040 O.2     1  UNL1       -0.2722
      7 N          63.2456   87.1583   12.6577 N.am    1  UNL1       -0.2711
      8 H          64.5722   84.2897   15.3238 H       1  UNL1        0.2110
      9 C          62.2337   85.8297    9.2485 C.ar    1  UNL1        0.1392
     10 C          61.4584   86.1035    7.9940 C.ar    1  UNL1        0.0368
     11 C          60.2253   86.9561    8.0455 C.ar    1  UNL1        0.0062
     12 C          59.7676   87.5348    9.3514 C.ar    1  UNL1        0.0368
     13 C          60.5430   87.2610   10.6060 C.ar    1  UNL1        0.1392
     14 C          61.7760   86.4084   10.5546 C.ar    1  UNL1        0.0637
     15 C          63.3791   83.5121    9.5070 C.3     1  UNL1        0.2525
     16 O          63.4668   84.9771    9.1971 O.3     1  UNL1       -0.4716
     17 O          60.0852   87.8397   11.9119 O.3     1  UNL1       -0.4716
     18 C          59.6699   89.2789   11.9900 C.3     1  UNL1        0.2525
     19 C          63.2863   88.6355   12.4007 C.3     1  UNL1        0.1204
     20 C          63.7563   89.5710   13.4750 C.ar    1  UNL1       -0.0021
     21 C          62.8456   89.9239   14.6135 C.ar    1  UNL1        0.0005
     22 C          63.3156   90.8593   15.6877 C.ar    1  UNL1        0.0372
     23 C          64.6964   91.4419   15.6235 C.ar    1  UNL1        0.1453
     24 O          65.4312   92.3845   16.5298 O.2     1  UNL1       -0.4535
     25 C          66.7961   92.6143   15.9516 C.ar    1  UNL1        0.1453
     26 C          67.9539   93.4490   16.4125 C.ar    1  UNL1        0.0375
     27 C          69.2205   93.4832   15.6097 C.ar    1  UNL1        0.0031
     28 C          69.3292   92.6825   14.3459 C.ar    1  UNL1        0.0002
     29 C          68.1713   91.8478   13.8849 C.ar    1  UNL1        0.0031
     30 C          66.9048   91.8136   14.6878 C.ar    1  UNL1        0.0375
     31 C          65.6071   91.0891   14.4850 C.ar    1  UNL1        0.0372
     32 C          65.1371   90.1537   13.4108 C.ar    1  UNL1        0.0005
@<TRIPOS>BOND
     1    15    16    1
     2    16     9    1
     3     9    10   ar
     4    10    11   ar
     5    11    12   ar
     6    12    13   ar
     7    13    17    1
     8    17    18    1
     9    13    14   ar
    10     1    14    1
    11     1     2    1
    12     2     3    1
    13     3     4    1
    14     3     5    1
    15     5     6    2
    16     5     7   am
    17     7    19    1
    18    19    20    1
    19    20    21   ar
    20    21    22   ar
    21    22    23   ar
    22    23    24   ar
    23    24    25   ar
    24    25    26   ar
    25    26    27   ar
    26    27    28   ar
    27    28    29   ar
    28    29    30   ar
    29    30    31   ar
    30    31    32   ar
    31    14     9   ar
    32     7     1    1
    33    32    20   ar
    34    31    23   ar
    35    30    25   ar
    36     4     8    1
@<TRIPOS>MOLECULE
*****
 32 36 0 0 0
SMALL
GASTEIGER

@<TRIPOS>ATOM
      1 C          64.1309   90.2667   13.8451 C.3     1  UNL1        0.1070
      2 C          65.4666   90.8902   13.5671 C.3     1  UNL1        0.0633
      3 C          65.3703   91.6321   12.2670 C.3     1  UNL1        0.1888
      4 O          66.4752   92.4035   11.6081 O.3     1  UNL1       -0.3757
      5 C          63.9751   91.4672   11.7414 C.2     1  UNL1        0.2530
      6 O          63.4399   92.0447   10.4648 O.2     1  UNL1       -0.2722
      7 N          63.2092   90.6234   12.7167 N.am    1  UNL1       -0.2711
      8 H          66.1514   92.7872   10.7781 H       1  UNL1        0.2110
      9 C          63.4495   90.0953   16.3464 C.ar    1  UNL1        0.1392
     10 C          63.0974   89.2617   17.5427 C.ar    1  UNL1        0.0368
     11 C          63.0747   87.7659   17.4339 C.ar    1  UNL1        0.0062
     12 C          63.4041   87.1036   16.1289 C.ar    1  UNL1        0.0368
     13 C          63.7562   87.9373   14.9326 C.ar    1  UNL1        0.1392
     14 C          63.7789   89.4331   15.0413 C.ar    1  UNL1        0.0637
     15 C          64.7419   92.2968   16.8290 C.3     1  UNL1        0.2525
     16 O          63.4721   91.5912   16.4550 O.3     1  UNL1       -0.4716
     17 O          64.0856   87.2750   13.6277 O.3     1  UNL1       -0.4716
     18 C          63.7506   85.8285   13.4152 C.3     1  UNL1        0.2525
     19 C          61.7735   90.2089   12.5866 C.3     1  UNL1        0.1204
     20 C          61.2899   89.5671   11.3199 C.ar    1  UNL1       -0.0021
     21 C          60.1527   90.1782   10.5562 C.ar    1  UNL1        0.0005
     22 C          59.6693   89.5363    9.2896 C.ar    1  UNL1        0.0372
     23 C          60.3230   88.2834    8.7867 C.ar    1  UNL1        0.1453
     24 O          60.0651   87.4319    7.5791 O.2     1  UNL1       -0.4535
     25 C          61.0430   86.2945    7.5965 C.ar    1  UNL1        0.1453
     26 C          61.2596   85.1428    6.6603 C.ar    1  UNL1        0.0375
     27 C          62.3385   84.1396    6.9425 C.ar    1  UNL1        0.0031
     28 C          63.2007   84.2882    8.1609 C.ar    1  UNL1        0.0002
     29 C          62.9841   85.4400    9.0971 C.ar    1  UNL1        0.0031
     30 C          61.9052   86.4431    8.8148 C.ar    1  UNL1        0.0375
     31 C          61.4602   87.6724    9.5504 C.ar    1  UNL1        0.0372
     32 C          61.9437   88.3142   10.8170 C.ar    1  UNL1        0.0005
@<TRIPOS>BOND
     1    15    16    1
     2    16     9    1
     3     9    10   ar
     4    10    11   ar
     5    11    12   ar
     6    12    13   ar
     7    13    17    1
     8    17    18    1
     9    13    14   ar
    10     1    14    1
    11     1     2    1
    12     2     3    1
    13     3     4    1
    14     3     5    1
    15     5     6    2
    16     5     7   am
    17     7    19    1
    18    19    20    1
    19    20    21   ar
    20    21    22   ar
    21    22    23   ar
    22    23    24   ar
    23    24    25   ar
    24    25    26   ar
    25    26    27   ar
    26    27    28   ar
    27    28    29   ar
    28    29    30   ar
    29    30    31   ar
    30    31    32   ar
    31    14     9   ar
    32     7     1    1
    33    32    20   ar
    34    31    23   ar
    35    30    25   ar
    36     4     8    1
@<TRIPOS>MOLECULE
*****
 32 36 0 0 0
SMALL
GASTEIGER

@<TRIPOS>ATOM
      1 C          64.0964   90.2648   13.8090 C.3     1  UNL1        0.1070
      2 C          65.4234   90.8987   13.5134 C.3     1  UNL1        0.0633
      3 C          65.3153   91.6079   12.1962 C.3     1  UNL1        0.1888
      4 O          66.4090   92.3775   11.5168 O.3     1  UNL1       -0.3757
      5 C          63.9215   91.4125   11.6775 C.2     1  UNL1        0.2530
      6 O          63.3766   91.9522   10.3885 O.2     1  UNL1       -0.2722
      7 N          63.1682   90.5824   12.6743 N.am    1  UNL1       -0.2711
      8 H          66.0788   92.7370   10.6786 H       1  UNL1        0.2110
      9 C          63.7081   87.9588   14.9409 C.ar    1  UNL1        0.1392
     10 C          63.3689   87.1495   16.1574 C.ar    1  UNL1        0.0368
     11 C          63.0788   87.8370   17.4586 C.ar    1  UNL1        0.0062
     12 C          63.1280   89.3338   17.5433 C.ar    1  UNL1        0.0368
     13 C          63.4672   90.1431   16.3267 C.ar    1  UNL1        0.1392
     14 C          63.7572   89.4556   15.0255 C.ar    1  UNL1        0.0637
     15 C          63.8637   85.7812   13.5325 C.3     1  UNL1        0.2525
     16 O          63.9981   87.2713   13.6397 O.3     1  UNL1       -0.4716
     17 O          63.5163   91.6399   16.4114 O.3     1  UNL1       -0.4716
     18 C          64.7953   92.3283   16.7857 C.3     1  UNL1        0.2525
     19 C          61.7378   90.1464   12.5569 C.3     1  UNL1        0.1204
     20 C          61.2494   89.5091   11.2898 C.ar    1  UNL1       -0.0021
     21 C          60.0930   90.1086   10.5461 C.ar    1  UNL1        0.0005
     22 C          59.6047   89.4713    9.2791 C.ar    1  UNL1        0.0372
     23 C          60.2728   88.2344    8.7558 C.ar    1  UNL1        0.1453
     24 O          60.0142   87.3906    7.5429 O.2     1  UNL1       -0.4535
     25 C          61.0108   86.2695    7.5371 C.ar    1  UNL1        0.1453
     26 C          61.2349   85.1307    6.5869 C.ar    1  UNL1        0.0375
     27 C          62.3336   84.1429    6.8460 C.ar    1  UNL1        0.0031
     28 C          63.2081   84.2939    8.0553 C.ar    1  UNL1        0.0002
     29 C          62.9840   85.4327    9.0055 C.ar    1  UNL1        0.0031
     30 C          61.8854   86.4205    8.7464 C.ar    1  UNL1        0.0375
     31 C          61.4292   87.6349    9.4996 C.ar    1  UNL1        0.0372
     32 C          61.9175   88.2722   10.7666 C.ar    1  UNL1        0.0005
@<TRIPOS>BOND
     1    15    16    1
     2    16     9    1
     3     9    10   ar
     4    10    11   ar
     5    11    12   ar
     6    12    13   ar
     7    13    17    1
     8    17    18    1
     9    13    14   ar
    10     1    14    1
    11     1     2    1
    12     2     3    1
    13     3     4    1
    14     3     5    1
    15     5     6    2
    16     5     7   am
    17     7    19    1
    18    19    20    1
    19    20    21   ar
    20    21    22   ar
    21    22    23   ar
    22    23    24   ar
    23    24    25   ar
    24    25    26   ar
    25    26    27   ar
    26    27    28   ar
    27    28    29   ar
    28    29    30   ar
    29    30    31   ar
    30    31    32   ar
    31    14     9   ar
    32     7     1    1
    33    32    20   ar
    34    31    23   ar
    35    30    25   ar
    36     4     8    1
