@<TRIPOS>MOLECULE
*****
 32 35 0 0 0
SMALL
GASTEIGER

@<TRIPOS>ATOM
      1 C          61.2986   89.0797   11.0061 C.ar    1  UNL1        0.2490
      2 N          60.4473   89.9298   10.1103 N.ar    1  UNL1       -0.1863
      3 C          59.9654   89.3873    8.7975 C.ar    1  UNL1        0.2225
      4 N          60.3348   87.9946    8.3806 N.ar    1  UNL1       -0.1420
      5 N          61.1861   87.1444    9.2764 N.ar    1  UNL1       -0.2193
      6 C          61.7074   85.7452    9.1337 C.ar    1  UNL1        0.1371
      7 C          62.5115   85.4230   10.3583 C.ar    1  UNL1        0.1552
      8 C          62.4871   86.6231   11.2578 C.ar    1  UNL1        0.0359
      9 C          63.1632   86.7390   12.5918 C.3     1  UNL1        0.0360
     10 C          61.6680   87.6870   10.5892 C.ar    1  UNL1        0.1353
     11 O          61.7805   89.6223   12.3189 O.3     1  UNL1       -0.4328
     12 C          68.3913   92.8669   15.0376 C.3     1  UNL1        0.0521
     13 C          67.1926   92.3864   14.2746 C.2     1  UNL1        0.0591
     14 C          66.1214   91.4760   14.7976 C.2     1  UNL1        0.0182
     15 C          65.1214   91.2588   13.7009 C.2     1  UNL1        0.0455
     16 C          63.8567   90.4546   13.6405 C.2     1  UNL1        0.1752
     17 F          63.4034   89.6784   14.8414 F       1  UNL1       -0.2009
     18 C          63.0451   90.4265   12.3793 C.2     1  UNL1        0.1706
     19 C          63.4984   91.2027   11.1784 C.2     1  UNL1        0.0201
     20 C          64.7632   92.0070   11.2388 C.3     1  UNL1        0.0751
     21 C          65.5746   92.0350   12.5000 C.2     1  UNL1        0.0653
     22 N          66.8547   92.7319   12.8546 N.2     1  UNL1       -0.2536
     23 O          63.2163   84.1280   10.6348 O.3     1  UNL1       -0.4741
     24 C          62.6240   83.1426   11.5982 C.3     1  UNL1        0.2070
     25 C          63.5001   82.4605   12.6068 C.3     1  UNL1        0.0661
     26 C          62.8842   81.7325   13.7648 C.3     1  UNL1        0.0949
     27 N          62.4287   82.4952   14.9734 N.3     1  UNL1       -0.1831
     28 H          62.5295   81.8687   15.7721 H       1  UNL1        0.1484
     29 S          63.1020   83.7829   15.3455 S.O2    1  UNL1        0.0426
     30 C          63.7753   85.0706   15.7175 C.3     1  UNL1        0.1957
     31 O          64.3696   83.0358   15.6370 O.2     1  UNL1       -0.1575
     32 O          61.8344   84.5299   15.0539 O.2     1  UNL1       -0.1575
@<TRIPOS>BOND
     1    12    13    1
     2    13    14    2
     3    14    15    1
     4    15    16    2
     5    16    17    1
     6    16    18    1
     7    18    11    1
     8    11     1    1
     9     1     2   ar
    10     2     3   ar
    11     3     4   ar
    12     4     5   ar
    13     5     6   ar
    14     6     7   ar
    15     7    23    1
    16    23    24    1
    17    24    25    1
    18    25    26    1
    19    26    27    1
    20    27    29    1
    21    29    30    1
    22    29    31    2
    23    29    32    2
    24     7     8   ar
    25     8     9    1
    26     8    10   ar
    27    18    19    2
    28    19    20    1
    29    20    21    1
    30    21    22    2
    31    22    13    1
    32    21    15    1
    33    10     1   ar
    34    10     5   ar
    35    27    28    1
@<TRIPOS>MOLECULE
*****
 32 35 0 0 0
SMALL
GASTEIGER

@<TRIPOS>ATOM
      1 C          61.6884   89.2479   11.7490 C.ar    1  UNL1        0.2490
      2 N          60.9327   90.3785   11.1161 N.ar    1  UNL1       -0.1863
      3 C          60.1767   90.1540    9.8402 C.ar    1  UNL1        0.2225
      4 N          60.1764   88.7989    9.1971 N.ar    1  UNL1       -0.1420
      5 N          60.9321   87.6683    9.8300 N.ar    1  UNL1       -0.2193
      6 C          61.1133   86.2340    9.4301 C.ar    1  UNL1        0.1371
      7 C          61.9813   85.5720   10.4589 C.ar    1  UNL1        0.1552
      8 C          62.3365   86.5972   11.4946 C.ar    1  UNL1        0.0359
      9 C          63.1903   86.3673   12.7063 C.3     1  UNL1        0.0360
     10 C          61.6881   87.8928   11.1059 C.ar    1  UNL1        0.1353
     11 O          62.4444   89.4724   13.0250 O.3     1  UNL1       -0.4328
     12 C          68.5187   93.6991   15.6444 C.3     1  UNL1        0.0521
     13 C          67.4070   93.0269   14.8945 C.2     1  UNL1        0.0591
     14 C          66.4594   92.0059   15.4509 C.2     1  UNL1        0.0182
     15 C          65.5145   91.6057   14.3569 C.2     1  UNL1        0.0455
     16 C          64.3699   90.6367   14.3238 C.2     1  UNL1        0.1752
     17 F          64.0063   89.8632   15.5564 F       1  UNL1       -0.2009
     18 C          63.5890   90.4413   13.0580 C.2     1  UNL1        0.1706
     19 C          63.9526   91.2149   11.8254 C.2     1  UNL1        0.0201
     20 C          65.0973   92.1839   11.8586 C.3     1  UNL1        0.0751
     21 C          65.8781   92.3792   13.1243 C.2     1  UNL1        0.0653
     22 N          67.0478   93.2576   13.4566 N.2     1  UNL1       -0.2536
     23 O          62.4174   84.1368   10.4530 O.3     1  UNL1       -0.4741
     24 C          63.8453   83.7881   10.1541 C.3     1  UNL1        0.2070
     25 C          64.6403   82.9771   11.1340 C.3     1  UNL1        0.0661
     26 C          64.1735   82.8479   12.5538 C.3     1  UNL1        0.0949
     27 N          63.8206   81.4993   13.1074 N.3     1  UNL1       -0.1831
     28 H          64.4511   81.3284   13.8908 H       1  UNL1        0.1484
     29 S          62.4306   81.2328   13.6044 S.O2    1  UNL1        0.0426
     30 C          61.0406   80.9664   14.1013 C.3     1  UNL1        0.1957
     31 O          62.4650   82.5122   14.3866 O.2     1  UNL1       -0.1575
     32 O          62.3962   79.9534   12.8222 O.2     1  UNL1       -0.1575
@<TRIPOS>BOND
     1    12    13    1
     2    13    14    2
     3    14    15    1
     4    15    16    2
     5    16    17    1
     6    16    18    1
     7    18    11    1
     8    11     1    1
     9     1     2   ar
    10     2     3   ar
    11     3     4   ar
    12     4     5   ar
    13     5     6   ar
    14     6     7   ar
    15     7    23    1
    16    23    24    1
    17    24    25    1
    18    25    26    1
    19    26    27    1
    20    27    29    1
    21    29    30    1
    22    29    31    2
    23    29    32    2
    24     7     8   ar
    25     8     9    1
    26     8    10   ar
    27    18    19    2
    28    19    20    1
    29    20    21    1
    30    21    22    2
    31    22    13    1
    32    21    15    1
    33    10     1   ar
    34    10     5   ar
    35    27    28    1
@<TRIPOS>MOLECULE
*****
 32 35 0 0 0
SMALL
GASTEIGER

@<TRIPOS>ATOM
      1 C          61.9206   88.0644   11.5476 C.ar    1  UNL1        0.2490
      2 N          62.7175   86.9058   12.0698 N.ar    1  UNL1       -0.1863
      3 C          62.7519   85.6147   11.3070 C.ar    1  UNL1        0.2225
      4 N          61.9895   85.4821   10.0221 N.ar    1  UNL1       -0.1420
      5 N          61.1926   86.6407    9.4999 N.ar    1  UNL1       -0.2193
      6 C          60.3470   86.8051    8.2720 C.ar    1  UNL1        0.1371
      7 C          59.7899   88.1978    8.2758 C.ar    1  UNL1        0.1552
      8 C          60.2913   88.8941    9.5061 C.ar    1  UNL1        0.0359
      9 C          59.9803   90.3051    9.9092 C.3     1  UNL1        0.0360
     10 C          61.1582   87.9318   10.2627 C.ar    1  UNL1        0.1353
     11 O          61.8862   89.3555   12.3104 O.3     1  UNL1       -0.4328
     12 C          68.4019   92.8589   14.9360 C.3     1  UNL1        0.0521
     13 C          67.2040   92.3429   14.1953 C.2     1  UNL1        0.0591
     14 C          66.2070   91.3496   14.7141 C.2     1  UNL1        0.0182
     15 C          65.1795   91.1224   13.6452 C.2     1  UNL1        0.0455
     16 C          63.9611   90.2492   13.5934 C.2     1  UNL1        0.1752
     17 F          63.5991   89.3962   14.7730 F       1  UNL1       -0.2009
     18 C          63.1046   90.2288   12.3621 C.2     1  UNL1        0.1706
     19 C          63.4666   91.0818   11.1825 C.2     1  UNL1        0.0201
     20 C          64.6851   91.9551   11.2343 C.3     1  UNL1        0.0751
     21 C          65.5415   91.9754   12.4656 C.2     1  UNL1        0.0653
     22 N          66.7927   92.7297   12.8056 N.2     1  UNL1       -0.2536
     23 O          58.8896   88.7902    7.2324 O.3     1  UNL1       -0.4741
     24 C          59.4458   89.7401    6.2135 C.3     1  UNL1        0.2070
     25 C          58.5279   90.6652    5.4708 C.3     1  UNL1        0.0661
     26 C          59.0315   91.9929    4.9874 C.3     1  UNL1        0.0949
     27 N          58.9728   92.3308    3.5271 N.3     1  UNL1       -0.1831
     28 H          58.2679   93.0606    3.4219 H       1  UNL1        0.1484
     29 S          60.2039   92.8127    2.8187 S.O2    1  UNL1        0.0426
     30 C          61.4352   93.2947    2.1102 C.3     1  UNL1        0.1957
     31 O          59.3474   93.5318    1.8191 O.2     1  UNL1       -0.1575
     32 O          61.0605   92.0937    3.8183 O.2     1  UNL1       -0.1575
@<TRIPOS>BOND
     1    12    13    1
     2    13    14    2
     3    14    15    1
     4    15    16    2
     5    16    17    1
     6    16    18    1
     7    18    11    1
     8    11     1    1
     9     1     2   ar
    10     2     3   ar
    11     3     4   ar
    12     4     5   ar
    13     5     6   ar
    14     6     7   ar
    15     7    23    1
    16    23    24    1
    17    24    25    1
    18    25    26    1
    19    26    27    1
    20    27    29    1
    21    29    30    1
    22    29    31    2
    23    29    32    2
    24     7     8   ar
    25     8     9    1
    26     8    10   ar
    27    18    19    2
    28    19    20    1
    29    20    21    1
    30    21    22    2
    31    22    13    1
    32    21    15    1
    33    10     1   ar
    34    10     5   ar
    35    27    28    1
@<TRIPOS>MOLECULE
*****
 32 35 0 0 0
SMALL
GASTEIGER

@<TRIPOS>ATOM
      1 C          62.9776   88.1180   12.7325 C.ar    1  UNL1        0.2490
      2 N          63.6345   87.4220   13.8875 N.ar    1  UNL1       -0.1863
      3 C          63.8980   85.9467   13.8227 C.ar    1  UNL1        0.2225
      4 N          63.5047   85.1675   12.6028 N.ar    1  UNL1       -0.1420
      5 N          62.8479   85.8635   11.4478 N.ar    1  UNL1       -0.2193
      6 C          62.3527   85.3620   10.1237 C.ar    1  UNL1        0.1371
      7 C          61.7831   86.5272    9.3702 C.ar    1  UNL1        0.1552
      8 C          61.9263   87.7489   10.2286 C.ar    1  UNL1        0.0359
      9 C          61.4883   89.1371    9.8666 C.3     1  UNL1        0.0360
     10 C          62.5843   87.3387   11.5127 C.ar    1  UNL1        0.1353
     11 O          62.7141   89.5932   12.7974 O.3     1  UNL1       -0.4328
     12 C          68.7300   93.6952   15.7310 C.3     1  UNL1        0.0521
     13 C          67.6362   93.0560   14.9278 C.2     1  UNL1        0.0591
     14 C          66.6720   92.0179   15.4203 C.2     1  UNL1        0.0182
     15 C          65.7544   91.6631   14.2879 C.2     1  UNL1        0.0455
     16 C          64.6086   90.7002   14.1886 C.2     1  UNL1        0.1752
     17 F          64.2115   89.8814   15.3809 F       1  UNL1       -0.2009
     18 C          63.8599   90.5561   12.8967 C.2     1  UNL1        0.1706
     19 C          64.2570   91.3750   11.7044 C.2     1  UNL1        0.0201
     20 C          65.4029   92.3379   11.8038 C.3     1  UNL1        0.0751
     21 C          66.1516   92.4820   13.0956 C.2     1  UNL1        0.0653
     22 N          67.3146   93.3428   13.4910 N.2     1  UNL1       -0.2536
     23 O          61.1768   86.4791    7.9991 O.3     1  UNL1       -0.4741
     24 C          59.6873   86.5457    7.8349 C.3     1  UNL1        0.2070
     25 C          58.9802   87.8650    7.9328 C.3     1  UNL1        0.0661
     26 C          59.3288   88.9749    6.9859 C.3     1  UNL1        0.0949
     27 N          58.2405   89.7269    6.2787 N.3     1  UNL1       -0.1831
     28 H          57.6158   90.0882    6.9996 H       1  UNL1        0.1484
     29 S          58.5851   90.8819    5.3859 S.O2    1  UNL1        0.0426
     30 C          58.9297   92.0370    4.4930 C.3     1  UNL1        0.1957
     31 O          60.0379   90.5209    5.4795 O.2     1  UNL1       -0.1575
     32 O          57.1323   91.2430    5.2922 O.2     1  UNL1       -0.1575
@<TRIPOS>BOND
     1    12    13    1
     2    13    14    2
     3    14    15    1
     4    15    16    2
     5    16    17    1
     6    16    18    1
     7    18    11    1
     8    11     1    1
     9     1     2   ar
    10     2     3   ar
    11     3     4   ar
    12     4     5   ar
    13     5     6   ar
    14     6     7   ar
    15     7    23    1
    16    23    24    1
    17    24    25    1
    18    25    26    1
    19    26    27    1
    20    27    29    1
    21    29    30    1
    22    29    31    2
    23    29    32    2
    24     7     8   ar
    25     8     9    1
    26     8    10   ar
    27    18    19    2
    28    19    20    1
    29    20    21    1
    30    21    22    2
    31    22    13    1
    32    21    15    1
    33    10     1   ar
    34    10     5   ar
    35    27    28    1
@<TRIPOS>MOLECULE
*****
 32 35 0 0 0
SMALL
GASTEIGER

@<TRIPOS>ATOM
      1 C          62.5897   86.8577   11.9006 C.ar    1  UNL1        0.2490
      2 N          61.7508   86.2581   10.8113 N.ar    1  UNL1       -0.1863
      3 C          61.0991   87.1450    9.7922 C.ar    1  UNL1        0.2225
      4 N          61.2862   88.6316    9.8625 N.ar    1  UNL1       -0.1420
      5 N          62.1251   89.2312   10.9518 N.ar    1  UNL1       -0.2193
      6 C          62.4871   90.6509   11.2736 C.ar    1  UNL1        0.1371
      7 C          63.3626   90.6413   12.4916 C.ar    1  UNL1        0.1552
      8 C          63.5416   89.2158   12.9225 C.ar    1  UNL1        0.0359
      9 C          64.3446   88.7444   14.0985 C.3     1  UNL1        0.0360
     10 C          62.7768   88.3443   11.9708 C.ar    1  UNL1        0.1353
     11 O          63.2415   85.9707   12.9197 O.3     1  UNL1       -0.4328
     12 C          62.8783   78.5798   10.2994 C.3     1  UNL1        0.0521
     13 C          62.8495   79.8802   11.0465 C.2     1  UNL1        0.0591
     14 C          63.2461   81.2198   10.5005 C.2     1  UNL1        0.0182
     15 C          63.0608   82.2368   11.5874 C.2     1  UNL1        0.0455
     16 C          63.2914   83.7184   11.6255 C.2     1  UNL1        0.1752
     17 F          63.8025   84.4295   10.4077 F       1  UNL1       -0.2009
     18 C          63.0109   84.4891   12.8815 C.2     1  UNL1        0.1706
     19 C          62.4997   83.7780   14.0994 C.2     1  UNL1        0.0201
     20 C          62.2691   82.2963   14.0612 C.3     1  UNL1        0.0751
     21 C          62.5496   81.5257   12.8052 C.2     1  UNL1        0.0653
     22 N          62.4191   80.0693   12.4709 N.2     1  UNL1       -0.2536
     23 O          63.9550   91.8458   13.1611 O.3     1  UNL1       -0.4741
     24 C          65.4441   92.0171   13.2158 C.3     1  UNL1        0.2070
     25 C          66.0692   93.2991   12.7515 C.3     1  UNL1        0.0661
     26 C          66.0233   93.6731   11.2995 C.3     1  UNL1        0.0949
     27 N          67.2707   94.1305   10.6031 N.3     1  UNL1       -0.1831
     28 H          67.9344   94.3946   11.3312 H       1  UNL1        0.1484
     29 S          67.9942   93.2018    9.6737 S.O2    1  UNL1        0.0426
     30 C          68.7178   92.2731    8.7441 C.3     1  UNL1        0.1957
     31 O          67.6681   94.1028    8.5196 O.2     1  UNL1       -0.1575
     32 O          68.3203   92.3009   10.8277 O.2     1  UNL1       -0.1575
@<TRIPOS>BOND
     1    12    13    1
     2    13    14    2
     3    14    15    1
     4    15    16    2
     5    16    17    1
     6    16    18    1
     7    18    11    1
     8    11     1    1
     9     1     2   ar
    10     2     3   ar
    11     3     4   ar
    12     4     5   ar
    13     5     6   ar
    14     6     7   ar
    15     7    23    1
    16    23    24    1
    17    24    25    1
    18    25    26    1
    19    26    27    1
    20    27    29    1
    21    29    30    1
    22    29    31    2
    23    29    32    2
    24     7     8   ar
    25     8     9    1
    26     8    10   ar
    27    18    19    2
    28    19    20    1
    29    20    21    1
    30    21    22    2
    31    22    13    1
    32    21    15    1
    33    10     1   ar
    34    10     5   ar
    35    27    28    1
@<TRIPOS>MOLECULE
*****
 32 35 0 0 0
SMALL
GASTEIGER

@<TRIPOS>ATOM
      1 C          63.0396   88.3994   12.7711 C.ar    1  UNL1        0.2490
      2 N          63.7128   87.7808   13.9602 N.ar    1  UNL1       -0.1863
      3 C          63.9828   86.3055   13.9860 C.ar    1  UNL1        0.2225
      4 N          63.5796   85.4489   12.8225 N.ar    1  UNL1       -0.1420
      5 N          62.9065   86.0675   11.6334 N.ar    1  UNL1       -0.2193
      6 C          62.3989   85.4810   10.3495 C.ar    1  UNL1        0.1371
      7 C          61.8151   86.5937    9.5303 C.ar    1  UNL1        0.1552
      8 C          61.9620   87.8680   10.3079 C.ar    1  UNL1        0.0359
      9 C          61.5132   89.2286    9.8638 C.3     1  UNL1        0.0360
     10 C          62.6365   87.5428   11.6077 C.ar    1  UNL1        0.1353
     11 O          62.7696   89.8747   12.7454 O.3     1  UNL1       -0.4328
     12 C          67.5581   95.2594    9.6310 C.3     1  UNL1        0.0521
     13 C          66.8187   94.2463   10.4538 C.2     1  UNL1        0.0591
     14 C          65.5830   93.5047   10.0376 C.2     1  UNL1        0.0182
     15 C          65.1857   92.5970   11.1638 C.2     1  UNL1        0.0455
     16 C          64.0503   91.6294   11.3203 C.2     1  UNL1        0.1752
     17 F          63.0602   91.4487   10.2081 F       1  UNL1       -0.2009
     18 C          63.9050   90.8423   12.5890 C.2     1  UNL1        0.1706
     19 C          64.8952   91.0230   13.7012 C.2     1  UNL1        0.0201
     20 C          66.0306   91.9907   13.5447 C.3     1  UNL1        0.0751
     21 C          66.1759   92.7776   12.2761 C.2     1  UNL1        0.0653
     22 N          67.1850   93.7970   11.8372 N.2     1  UNL1       -0.2536
     23 O          61.1937   86.4563    8.1721 O.3     1  UNL1       -0.4741
     24 C          59.7012   86.4055    8.0318 C.3     1  UNL1        0.2070
     25 C          58.9116   87.6784    7.9524 C.3     1  UNL1        0.0661
     26 C          59.3127   88.7506    6.9829 C.3     1  UNL1        0.0949
     27 N          58.2723   89.6562    6.3936 N.3     1  UNL1       -0.1831
     28 H          57.7644   90.0694    7.1757 H       1  UNL1        0.1484
     29 S          58.6829   90.7873    5.4981 S.O2    1  UNL1        0.0426
     30 C          59.0935   91.9185    4.6025 C.3     1  UNL1        0.1957
     31 O          60.1145   90.3528    5.6056 O.2     1  UNL1       -0.1575
     32 O          57.2512   91.2219    5.3906 O.2     1  UNL1       -0.1575
@<TRIPOS>BOND
     1    12    13    1
     2    13    14    2
     3    14    15    1
     4    15    16    2
     5    16    17    1
     6    16    18    1
     7    18    11    1
     8    11     1    1
     9     1     2   ar
    10     2     3   ar
    11     3     4   ar
    12     4     5   ar
    13     5     6   ar
    14     6     7   ar
    15     7    23    1
    16    23    24    1
    17    24    25    1
    18    25    26    1
    19    26    27    1
    20    27    29    1
    21    29    30    1
    22    29    31    2
    23    29    32    2
    24     7     8   ar
    25     8     9    1
    26     8    10   ar
    27    18    19    2
    28    19    20    1
    29    20    21    1
    30    21    22    2
    31    22    13    1
    32    21    15    1
    33    10     1   ar
    34    10     5   ar
    35    27    28    1
@<TRIPOS>MOLECULE
*****
 32 35 0 0 0
SMALL
GASTEIGER

@<TRIPOS>ATOM
      1 C          61.6153   88.8554   11.3212 C.ar    1  UNL1        0.2490
      2 N          60.7590   89.5001   10.2719 N.ar    1  UNL1       -0.1863
      3 C          60.3387   88.7185    9.0625 C.ar    1  UNL1        0.2225
      4 N          60.7748   87.2923    8.9025 N.ar    1  UNL1       -0.1420
      5 N          61.6311   86.6476    9.9518 N.ar    1  UNL1       -0.2193
      6 C          62.2110   85.2690   10.0664 C.ar    1  UNL1        0.1371
      7 C          62.9896   85.1985   11.3466 C.ar    1  UNL1        0.1552
      8 C          62.8909   86.5336   12.0232 C.ar    1  UNL1        0.0359
      9 C          63.5211   86.9075   13.3320 C.3     1  UNL1        0.0360
     10 C          62.0514   87.4292   11.1612 C.ar    1  UNL1        0.1353
     11 O          62.0355   89.6370   12.5305 O.3     1  UNL1       -0.4328
     12 C          67.5115   94.6432    9.9664 C.3     1  UNL1        0.0521
     13 C          66.6300   93.6703   10.6919 C.2     1  UNL1        0.0591
     14 C          65.3452   93.0916   10.1777 C.2     1  UNL1        0.0182
     15 C          64.7996   92.1689   11.2270 C.2     1  UNL1        0.0455
     16 C          63.5624   91.3221   11.2739 C.2     1  UNL1        0.1752
     17 F          62.6148   91.3137   10.1112 F       1  UNL1       -0.2009
     18 C          63.2727   90.4838   12.4836 C.2     1  UNL1        0.1706
     19 C          64.2203   90.4923   13.6464 C.2     1  UNL1        0.0201
     20 C          65.4576   91.3391   13.5994 C.3     1  UNL1        0.0751
     21 C          65.7472   92.1774   12.3898 C.2     1  UNL1        0.0653
     22 N          66.8784   93.1053   12.0590 N.2     1  UNL1       -0.2536
     23 O          63.7358   84.0028   11.8600 O.3     1  UNL1       -0.4741
     24 C          63.4098   82.6347   11.3388 C.3     1  UNL1        0.2070
     25 C          62.7422   81.6312   12.2318 C.3     1  UNL1        0.0661
     26 C          62.8604   81.7575   13.7218 C.3     1  UNL1        0.0949
     27 N          62.1049   82.8324   14.4456 N.3     1  UNL1       -0.1831
     28 H          61.4419   82.3623   15.0619 H       1  UNL1        0.1484
     29 S          62.8431   83.8320   15.2857 S.O2    1  UNL1        0.0426
     30 C          63.5812   84.8317   16.1259 C.3     1  UNL1        0.1957
     31 O          64.0452   82.9350   15.2970 O.2     1  UNL1       -0.1575
     32 O          61.6410   84.7291   15.2745 O.2     1  UNL1       -0.1575
@<TRIPOS>BOND
     1    12    13    1
     2    13    14    2
     3    14    15    1
     4    15    16    2
     5    16    17    1
     6    16    18    1
     7    18    11    1
     8    11     1    1
     9     1     2   ar
    10     2     3   ar
    11     3     4   ar
    12     4     5   ar
    13     5     6   ar
    14     6     7   ar
    15     7    23    1
    16    23    24    1
    17    24    25    1
    18    25    26    1
    19    26    27    1
    20    27    29    1
    21    29    30    1
    22    29    31    2
    23    29    32    2
    24     7     8   ar
    25     8     9    1
    26     8    10   ar
    27    18    19    2
    28    19    20    1
    29    20    21    1
    30    21    22    2
    31    22    13    1
    32    21    15    1
    33    10     1   ar
    34    10     5   ar
    35    27    28    1
@<TRIPOS>MOLECULE
*****
 32 35 0 0 0
SMALL
GASTEIGER

@<TRIPOS>ATOM
      1 C          62.2007   89.0884   12.1072 C.ar    1  UNL1        0.2490
      2 N          61.4477   89.6057   10.9175 N.ar    1  UNL1       -0.1863
      3 C          61.1575   88.6965    9.7603 C.ar    1  UNL1        0.2225
      4 N          61.6204   87.2701    9.7927 N.ar    1  UNL1       -0.1420
      5 N          62.3734   86.7528   10.9824 N.ar    1  UNL1       -0.2193
      6 C          62.9513   85.4046   11.2959 C.ar    1  UNL1        0.1371
      7 C          63.5987   85.4805   12.6469 C.ar    1  UNL1        0.1552
      8 C          63.4208   86.8757   13.1683 C.ar    1  UNL1        0.0359
      9 C          63.9137   87.3936   14.4870 C.3     1  UNL1        0.0360
     10 C          62.6635   87.6620   12.1397 C.ar    1  UNL1        0.1353
     11 O          62.4909   89.9976   13.2644 O.3     1  UNL1       -0.4328
     12 C          68.9228   93.6991   15.8243 C.3     1  UNL1        0.0521
     13 C          67.7693   93.0971   15.0780 C.2     1  UNL1        0.0591
     14 C          66.6816   92.2506   15.6699 C.2     1  UNL1        0.0182
     15 C          65.7410   91.8662   14.5664 C.2     1  UNL1        0.0455
     16 C          64.4889   91.0403   14.5571 C.2     1  UNL1        0.1752
     17 F          63.9825   90.4314   15.8310 F       1  UNL1       -0.2009
     18 C          63.7430   90.8234   13.2738 C.2     1  UNL1        0.1706
     19 C          64.2494   91.4324   11.9999 C.2     1  UNL1        0.0201
     20 C          65.5016   92.2582   12.0093 C.3     1  UNL1        0.0751
     21 C          66.2474   92.4751   13.2926 C.2     1  UNL1        0.0653
     22 N          67.5009   93.2358   13.6087 N.2     1  UNL1       -0.2536
     23 O          64.3007   84.3583   13.3525 O.3     1  UNL1       -0.4741
     24 C          63.7594   83.8323   14.6488 C.3     1  UNL1        0.2070
     25 C          62.4784   83.0520   14.6651 C.3     1  UNL1        0.0661
     26 C          62.2086   82.0308   13.6000 C.3     1  UNL1        0.0949
     27 N          63.0859   81.9645   12.3851 N.3     1  UNL1       -0.1831
     28 H          64.0501   82.0013   12.7158 H       1  UNL1        0.1484
     29 S          62.9917   80.7915   11.4550 S.O2    1  UNL1        0.0426
     30 C          62.8975   79.6183   10.5250 C.3     1  UNL1        0.1957
     31 O          62.4734   79.9428   12.5780 O.2     1  UNL1       -0.1575
     32 O          63.5100   81.6402   10.3321 O.2     1  UNL1       -0.1575
@<TRIPOS>BOND
     1    12    13    1
     2    13    14    2
     3    14    15    1
     4    15    16    2
     5    16    17    1
     6    16    18    1
     7    18    11    1
     8    11     1    1
     9     1     2   ar
    10     2     3   ar
    11     3     4   ar
    12     4     5   ar
    13     5     6   ar
    14     6     7   ar
    15     7    23    1
    16    23    24    1
    17    24    25    1
    18    25    26    1
    19    26    27    1
    20    27    29    1
    21    29    30    1
    22    29    31    2
    23    29    32    2
    24     7     8   ar
    25     8     9    1
    26     8    10   ar
    27    18    19    2
    28    19    20    1
    29    20    21    1
    30    21    22    2
    31    22    13    1
    32    21    15    1
    33    10     1   ar
    34    10     5   ar
    35    27    28    1
@<TRIPOS>MOLECULE
*****
 32 35 0 0 0
SMALL
GASTEIGER

@<TRIPOS>ATOM
      1 C          63.4458   87.7980   14.1044 C.ar    1  UNL1        0.2490
      2 N          64.0355   87.5626   15.4633 N.ar    1  UNL1       -0.1863
      3 C          64.4558   86.1811   15.8695 C.ar    1  UNL1        0.2225
      4 N          64.2862   85.0351   14.9168 N.ar    1  UNL1       -0.1420
      5 N          63.6964   85.2704   13.5579 N.ar    1  UNL1       -0.2193
      6 C          63.4093   84.3435   12.4141 C.ar    1  UNL1        0.1371
      7 C          62.8116   85.1520   11.3010 C.ar    1  UNL1        0.1552
      8 C          62.7294   86.5787   11.7568 C.ar    1  UNL1        0.0359
      9 C          62.1943   87.7300   10.9581 C.3     1  UNL1        0.0360
     10 C          63.2762   86.6519   13.1517 C.ar    1  UNL1        0.1353
     11 O          63.0256   89.1794   13.6982 O.3     1  UNL1       -0.4328
     12 C          66.9894   95.0007   10.2307 C.3     1  UNL1        0.0521
     13 C          66.4338   93.9099   11.0976 C.2     1  UNL1        0.0591
     14 C          65.2095   93.0924   10.8098 C.2     1  UNL1        0.0182
     15 C          65.0239   92.1224   11.9388 C.2     1  UNL1        0.0455
     16 C          63.9880   91.0687   12.1967 C.2     1  UNL1        0.1752
     17 F          62.8784   90.8507   11.2111 F       1  UNL1       -0.2009
     18 C          64.0615   90.2331   13.4403 C.2     1  UNL1        0.1706
     19 C          65.1711   90.4511   14.4258 C.2     1  UNL1        0.0201
     20 C          66.2071   91.5048   14.1679 C.3     1  UNL1        0.0751
     21 C          66.1335   92.3404   12.9244 C.2     1  UNL1        0.0653
     22 N          67.0048   93.4452   12.4044 N.2     1  UNL1       -0.2536
     23 O          62.3732   84.6262    9.9663 O.3     1  UNL1       -0.4741
     24 C          63.2163   84.8708    8.7501 C.3     1  UNL1        0.2070
     25 C          62.5635   85.1297    7.4246 C.3     1  UNL1        0.0661
     26 C          61.0783   85.3245    7.3454 C.3     1  UNL1        0.0949
     27 N          60.3831   86.2045    8.3415 N.3     1  UNL1       -0.1831
     28 H          61.0961   86.5318    8.9934 H       1  UNL1        0.1484
     29 S          59.6326   87.4169    7.8761 S.O2    1  UNL1        0.0426
     30 C          58.8821   88.6294    7.4105 C.3     1  UNL1        0.1957
     31 O          58.5418   86.5367    7.3420 O.2     1  UNL1       -0.1575
     32 O          60.7234   88.2971    8.4101 O.2     1  UNL1       -0.1575
@<TRIPOS>BOND
     1    12    13    1
     2    13    14    2
     3    14    15    1
     4    15    16    2
     5    16    17    1
     6    16    18    1
     7    18    11    1
     8    11     1    1
     9     1     2   ar
    10     2     3   ar
    11     3     4   ar
    12     4     5   ar
    13     5     6   ar
    14     6     7   ar
    15     7    23    1
    16    23    24    1
    17    24    25    1
    18    25    26    1
    19    26    27    1
    20    27    29    1
    21    29    30    1
    22    29    31    2
    23    29    32    2
    24     7     8   ar
    25     8     9    1
    26     8    10   ar
    27    18    19    2
    28    19    20    1
    29    20    21    1
    30    21    22    2
    31    22    13    1
    32    21    15    1
    33    10     1   ar
    34    10     5   ar
    35    27    28    1
