@<TRIPOS>MOLECULE
*****
 28 30 0 0 0
SMALL
GASTEIGER

@<TRIPOS>ATOM
      1 C          65.9571   93.5723   12.0549 C.ar    1  UNL1        0.0070
      2 C          66.4398   93.4291   13.4678 C.ar    1  UNL1       -0.0017
      3 C          65.9259   92.3115   14.3263 C.ar    1  UNL1       -0.0002
      4 C          64.9294   91.3372   13.7717 C.ar    1  UNL1        0.0000
      5 C          64.4467   91.4803   12.3588 C.ar    1  UNL1       -0.0002
      6 C          64.9606   92.5979   11.5003 C.ar    1  UNL1       -0.0017
      7 C          64.4155   90.2196   14.6303 C.ar    1  UNL1        0.0012
      8 C          63.5943   90.5256   15.8476 C.ar    1  UNL1        0.0001
      9 C          63.0805   89.4080   16.7061 C.ar    1  UNL1        0.0013
     10 C          63.3878   87.9844   16.3472 C.ar    1  UNL1        0.0147
     11 C          64.2090   87.6784   15.1298 C.ar    1  UNL1        0.0503
     12 C          64.7228   88.7959   14.2713 C.ar    1  UNL1        0.0147
     13 N          64.5163   86.2547   14.7709 N.am    1  UNL1       -0.2839
     14 C          63.8649   85.6253   13.5752 C.2     1  UNL1        0.2266
     15 C          64.1722   84.2017   13.2163 C.3     1  UNL1        0.0949
     16 O          62.9062   86.4195   12.7385 O.2     1  UNL1       -0.2748
     17 H          65.1455   85.7334   15.3201 H       1  UNL1        0.1549
     18 C          66.4710   94.6898   11.1963 C.3     1  UNL1        0.1411
     19 O          65.7015   95.6779   12.0219 O.3     1  UNL1       -0.3771
     20 H          66.3110   96.3380   12.3874 H       1  UNL1        0.2112
     21 C          67.2406   93.7018   10.3708 C.ar    1  UNL1        0.0825
     22 C          67.5446   93.8231    8.9070 C.ar    1  UNL1        0.1157
     23 N          68.3332   92.6151    8.4956 N.ar    1  UNL1       -0.2228
     24 C          68.5164   91.7473    9.7053 C.ar    1  UNL1        0.1749
     25 N          67.8412   92.4188   10.8642 N.ar    1  UNL1       -0.3361
     26 H          67.7995   92.0775   11.7867 H       1  UNL1        0.1673
     27 C          66.0360   96.8368    9.7995 C.3     1  UNL1        0.0033
     28 C          66.9849   95.8073   10.3378 C.3     1  UNL1        0.0369
@<TRIPOS>BOND
     1    27    28    1
     2    28    18    1
     3    18    19    1
     4    18     1    1
     5     1     2   ar
     6     2     3   ar
     7     3     4   ar
     8     4     7    1
     9     7     8   ar
    10     8     9   ar
    11     9    10   ar
    12    10    11   ar
    13    11    13    1
    14    13    14   am
    15    14    15    1
    16    14    16    2
    17    11    12   ar
    18     4     5   ar
    19     5     6   ar
    20    18    21    1
    21    21    22   ar
    22    22    23   ar
    23    23    24   ar
    24    24    25   ar
    25     6     1   ar
    26    25    21   ar
    27    12     7   ar
    28    19    20    1
    29    13    17    1
    30    25    26    1
@<TRIPOS>MOLECULE
*****
 28 30 0 0 0
SMALL
GASTEIGER

@<TRIPOS>ATOM
      1 C          63.2148   84.2269   13.7872 C.ar    1  UNL1        0.0070
      2 C          62.6068   84.9564   12.6261 C.ar    1  UNL1       -0.0017
      3 C          62.8219   86.4329   12.4722 C.ar    1  UNL1       -0.0002
      4 C          63.6452   87.1798   13.4794 C.ar    1  UNL1        0.0000
      5 C          64.2532   86.4503   14.6404 C.ar    1  UNL1       -0.0002
      6 C          64.0380   84.9739   14.7943 C.ar    1  UNL1       -0.0017
      7 C          63.8603   88.6564   13.3254 C.ar    1  UNL1        0.0012
      8 C          63.3120   89.3733   12.1274 C.ar    1  UNL1        0.0001
      9 C          63.5272   90.8498   11.9734 C.ar    1  UNL1        0.0013
     10 C          64.2907   91.6093   13.0176 C.ar    1  UNL1        0.0147
     11 C          64.8390   90.8923   14.2157 C.ar    1  UNL1        0.0503
     12 C          64.6238   89.4159   14.3696 C.ar    1  UNL1        0.0147
     13 N          65.6025   91.6519   15.2598 N.am    1  UNL1       -0.2839
     14 C          67.0307   92.0377   15.0122 C.2     1  UNL1        0.2266
     15 C          67.7942   92.7972   16.0564 C.3     1  UNL1        0.0949
     16 O          67.6955   91.6640   13.7206 O.2     1  UNL1       -0.2748
     17 H          65.1662   91.8971   16.1076 H       1  UNL1        0.1549
     18 C          62.9996   82.7504   13.9411 C.3     1  UNL1        0.1411
     19 O          62.5159   82.9671   15.3443 O.3     1  UNL1       -0.3771
     20 H          61.6195   82.6081   15.4364 H       1  UNL1        0.2112
     21 C          63.4834   82.5336   12.5379 C.ar    1  UNL1        0.0825
     22 C          64.7586   83.0644   11.9530 C.ar    1  UNL1        0.1157
     23 N          64.8402   82.6068   10.5268 N.ar    1  UNL1       -0.2228
     24 C          63.6153   81.7933   10.2303 C.ar    1  UNL1        0.1749
     25 N          62.7768   81.7480   11.4732 N.ar    1  UNL1       -0.3361
     26 H          61.9141   81.2842   11.5726 H       1  UNL1        0.1673
     27 C          61.3919   80.7250   14.1921 C.3     1  UNL1        0.0033
     28 C          62.7845   81.2739   14.0950 C.3     1  UNL1        0.0369
@<TRIPOS>BOND
     1    27    28    1
     2    28    18    1
     3    18    19    1
     4    18     1    1
     5     1     2   ar
     6     2     3   ar
     7     3     4   ar
     8     4     7    1
     9     7     8   ar
    10     8     9   ar
    11     9    10   ar
    12    10    11   ar
    13    11    13    1
    14    13    14   am
    15    14    15    1
    16    14    16    2
    17    11    12   ar
    18     4     5   ar
    19     5     6   ar
    20    18    21    1
    21    21    22   ar
    22    22    23   ar
    23    23    24   ar
    24    24    25   ar
    25     6     1   ar
    26    25    21   ar
    27    12     7   ar
    28    19    20    1
    29    13    17    1
    30    25    26    1
@<TRIPOS>MOLECULE
*****
 28 30 0 0 0
SMALL
GASTEIGER

@<TRIPOS>ATOM
      1 C          65.1004   91.7521   13.3267 C.ar    1  UNL1        0.0070
      2 C          64.8380   90.4592   14.0405 C.ar    1  UNL1       -0.0017
      3 C          63.9348   89.4323   13.4244 C.ar    1  UNL1       -0.0002
      4 C          63.2938   89.6983   12.0946 C.ar    1  UNL1        0.0000
      5 C          63.5562   90.9912   11.3808 C.ar    1  UNL1       -0.0002
      6 C          64.4595   92.0181   11.9969 C.ar    1  UNL1       -0.0017
      7 C          62.3905   88.6713   11.4786 C.ar    1  UNL1        0.0012
      8 C          61.1022   89.0939   10.8371 C.ar    1  UNL1        0.0001
      9 C          60.1988   88.0669   10.2210 C.ar    1  UNL1        0.0013
     10 C          60.5840   86.6174   10.2465 C.ar    1  UNL1        0.0147
     11 C          61.8724   86.1949   10.8880 C.ar    1  UNL1        0.0503
     12 C          62.7757   87.2218   11.5040 C.ar    1  UNL1        0.0147
     13 N          62.2575   84.7454   10.9135 N.am    1  UNL1       -0.2839
     14 C          62.5212   84.0623   12.2227 C.2     1  UNL1        0.2266
     15 C          62.9063   82.6128   12.2482 C.3     1  UNL1        0.0949
     16 O          62.3997   84.8287   13.5064 O.2     1  UNL1       -0.2748
     17 H          62.3373   84.2424   10.0710 H       1  UNL1        0.1549
     18 C          66.0037   92.7790   13.9428 C.3     1  UNL1        0.1411
     19 O          65.4515   92.4516   15.2984 O.3     1  UNL1       -0.3771
     20 H          66.1747   92.1811   15.8854 H       1  UNL1        0.2112
     21 C          66.5559   93.1064   12.5871 C.ar    1  UNL1        0.0825
     22 C          66.3230   94.3762   11.8233 C.ar    1  UNL1        0.1157
     23 N          67.0612   94.2761   10.5213 N.ar    1  UNL1       -0.2228
     24 C          67.7504   92.9443   10.4805 C.ar    1  UNL1        0.1749
     25 N          67.4382   92.2215   11.7572 N.ar    1  UNL1       -0.3361
     26 H          67.7564   91.3239   12.0066 H       1  UNL1        0.1673
     27 C          67.9139   93.3959   15.5921 C.3     1  UNL1        0.0033
     28 C          66.9070   93.8059   14.5587 C.3     1  UNL1        0.0369
@<TRIPOS>BOND
     1    27    28    1
     2    28    18    1
     3    18    19    1
     4    18     1    1
     5     1     2   ar
     6     2     3   ar
     7     3     4   ar
     8     4     7    1
     9     7     8   ar
    10     8     9   ar
    11     9    10   ar
    12    10    11   ar
    13    11    13    1
    14    13    14   am
    15    14    15    1
    16    14    16    2
    17    11    12   ar
    18     4     5   ar
    19     5     6   ar
    20    18    21    1
    21    21    22   ar
    22    22    23   ar
    23    23    24   ar
    24    24    25   ar
    25     6     1   ar
    26    25    21   ar
    27    12     7   ar
    28    19    20    1
    29    13    17    1
    30    25    26    1
@<TRIPOS>MOLECULE
*****
 28 30 0 0 0
SMALL
GASTEIGER

@<TRIPOS>ATOM
      1 C          61.6367   88.8367   10.3477 C.ar    1  UNL1        0.0070
      2 C          62.1062   90.0548    9.6089 C.ar    1  UNL1       -0.0017
      3 C          63.1055   90.9770   10.2419 C.ar    1  UNL1       -0.0002
      4 C          63.6354   90.6812   11.6136 C.ar    1  UNL1        0.0000
      5 C          63.1659   89.4631   12.3524 C.ar    1  UNL1       -0.0002
      6 C          62.1666   88.5409   11.7194 C.ar    1  UNL1       -0.0017
      7 C          64.6348   91.6035   12.2466 C.ar    1  UNL1        0.0012
      8 C          65.1851   91.2933   13.6071 C.ar    1  UNL1        0.0001
      9 C          66.1845   92.2156   14.2400 C.ar    1  UNL1        0.0013
     10 C          66.6336   93.4481   13.5125 C.ar    1  UNL1        0.0147
     11 C          66.0833   93.7582   12.1519 C.ar    1  UNL1        0.0503
     12 C          65.0839   92.8359   11.5190 C.ar    1  UNL1        0.0147
     13 N          66.5324   94.9907   11.4243 N.am    1  UNL1       -0.2839
     14 C          67.0970   94.8799   10.0390 C.2     1  UNL1        0.2266
     15 C          67.5461   96.1124    9.3115 C.3     1  UNL1        0.0949
     16 O          67.2126   93.5368    9.3814 O.2     1  UNL1       -0.2748
     17 H          66.4565   95.8723   11.8560 H       1  UNL1        0.1549
     18 C          60.6372   87.9144    9.7147 C.3     1  UNL1        0.1411
     19 O          59.8157   89.0956    9.2907 O.3     1  UNL1       -0.3771
     20 H          59.7015   89.0811    8.3276 H       1  UNL1        0.2112
     21 C          61.4588   86.7333   10.1387 C.ar    1  UNL1        0.0825
     22 C          62.4816   86.0243    9.3011 C.ar    1  UNL1        0.1157
     23 N          63.0568   84.9065   10.1195 N.ar    1  UNL1       -0.2228
     24 C          62.3895   84.9246   11.4629 C.ar    1  UNL1        0.1749
     25 N          61.4019   86.0535   11.4747 N.ar    1  UNL1       -0.3361
     26 H          60.8188   86.3044   12.2272 H       1  UNL1        0.1673
     27 C          59.1397   87.2649    7.6935 C.3     1  UNL1        0.0033
     28 C          59.6379   86.9921    9.0818 C.3     1  UNL1        0.0369
@<TRIPOS>BOND
     1    27    28    1
     2    28    18    1
     3    18    19    1
     4    18     1    1
     5     1     2   ar
     6     2     3   ar
     7     3     4   ar
     8     4     7    1
     9     7     8   ar
    10     8     9   ar
    11     9    10   ar
    12    10    11   ar
    13    11    13    1
    14    13    14   am
    15    14    15    1
    16    14    16    2
    17    11    12   ar
    18     4     5   ar
    19     5     6   ar
    20    18    21    1
    21    21    22   ar
    22    22    23   ar
    23    23    24   ar
    24    24    25   ar
    25     6     1   ar
    26    25    21   ar
    27    12     7   ar
    28    19    20    1
    29    13    17    1
    30    25    26    1
@<TRIPOS>MOLECULE
*****
 28 30 0 0 0
SMALL
GASTEIGER

@<TRIPOS>ATOM
      1 C          64.9756   91.7151   13.0919 C.ar    1  UNL1        0.0070
      2 C          64.5701   90.4293   13.7493 C.ar    1  UNL1       -0.0017
      3 C          63.6063   89.5074   13.0629 C.ar    1  UNL1       -0.0002
      4 C          63.0479   89.8714   11.7191 C.ar    1  UNL1        0.0000
      5 C          63.4534   91.1573   11.0617 C.ar    1  UNL1       -0.0002
      6 C          64.4172   92.0791   11.7481 C.ar    1  UNL1       -0.0017
      7 C          62.0841   88.9495   11.0327 C.ar    1  UNL1        0.0012
      8 C          60.6176   89.0369   11.3356 C.ar    1  UNL1        0.0001
      9 C          59.6537   88.1150   10.6492 C.ar    1  UNL1        0.0013
     10 C          60.1564   87.1057    9.6600 C.ar    1  UNL1        0.0147
     11 C          61.6230   87.0183    9.3571 C.ar    1  UNL1        0.0503
     12 C          62.5867   87.9402   10.0435 C.ar    1  UNL1        0.0147
     13 N          62.1256   86.0090    8.3679 N.am    1  UNL1       -0.2839
     14 C          61.2050   85.4689    7.3138 C.2     1  UNL1        0.2266
     15 C          61.7077   84.4596    6.3246 C.3     1  UNL1        0.0949
     16 O          59.7818   85.9382    7.2491 O.2     1  UNL1       -0.2748
     17 H          63.0598   85.7010    8.4104 H       1  UNL1        0.1549
     18 C          65.9395   92.6371   13.7783 C.3     1  UNL1        0.1411
     19 O          65.3477   92.2673   15.1061 O.3     1  UNL1       -0.3771
     20 H          66.0425   91.9117   15.6820 H       1  UNL1        0.2112
     21 C          66.5312   93.0068   12.4505 C.ar    1  UNL1        0.0825
     22 C          66.2955   94.2875   11.7061 C.ar    1  UNL1        0.1157
     23 N          67.0813   94.2330   10.4294 N.ar    1  UNL1       -0.2228
     24 C          67.8027   92.9186   10.3850 C.ar    1  UNL1        0.1749
     25 N          67.4628   92.1608   11.6340 N.ar    1  UNL1       -0.3361
     26 H          67.7931   91.2653   11.8755 H       1  UNL1        0.1673
     27 C          67.5179   93.1619   15.7740 C.3     1  UNL1        0.0033
     28 C          66.9033   93.5589   14.4646 C.3     1  UNL1        0.0369
@<TRIPOS>BOND
     1    27    28    1
     2    28    18    1
     3    18    19    1
     4    18     1    1
     5     1     2   ar
     6     2     3   ar
     7     3     4   ar
     8     4     7    1
     9     7     8   ar
    10     8     9   ar
    11     9    10   ar
    12    10    11   ar
    13    11    13    1
    14    13    14   am
    15    14    15    1
    16    14    16    2
    17    11    12   ar
    18     4     5   ar
    19     5     6   ar
    20    18    21    1
    21    21    22   ar
    22    22    23   ar
    23    23    24   ar
    24    24    25   ar
    25     6     1   ar
    26    25    21   ar
    27    12     7   ar
    28    19    20    1
    29    13    17    1
    30    25    26    1
@<TRIPOS>MOLECULE
*****
 28 30 0 0 0
SMALL
GASTEIGER

@<TRIPOS>ATOM
      1 C          64.9378   91.3484   13.7166 C.ar    1  UNL1        0.0070
      2 C          64.8749   89.9821   14.3323 C.ar    1  UNL1       -0.0017
      3 C          64.1349   88.8790   13.6357 C.ar    1  UNL1       -0.0002
      4 C          63.4578   89.1421   12.3234 C.ar    1  UNL1        0.0000
      5 C          63.5207   90.5084   11.7076 C.ar    1  UNL1       -0.0002
      6 C          64.2607   91.6116   12.4042 C.ar    1  UNL1       -0.0017
      7 C          62.7177   88.0388   11.6267 C.ar    1  UNL1        0.0012
      8 C          62.6849   86.6636   12.2247 C.ar    1  UNL1        0.0001
      9 C          61.9449   85.5603   11.5280 C.ar    1  UNL1        0.0013
     10 C          61.2376   85.8324   10.2335 C.ar    1  UNL1        0.0147
     11 C          61.2705   87.2077    9.6356 C.ar    1  UNL1        0.0503
     12 C          62.0105   88.3109   10.3322 C.ar    1  UNL1        0.0147
     13 N          60.5633   87.4798    8.3410 N.am    1  UNL1       -0.2839
     14 C          59.8454   88.7811    8.1377 C.2     1  UNL1        0.2266
     15 C          59.1382   89.0532    6.8432 C.3     1  UNL1        0.0949
     16 O          59.8347   89.8103    9.2288 O.2     1  UNL1       -0.2748
     17 H          60.5703   86.8043    7.6249 H       1  UNL1        0.1549
     18 C          65.6778   92.4517   14.4132 C.3     1  UNL1        0.1411
     19 O          65.0823   92.0248   15.7220 O.3     1  UNL1       -0.3771
     20 H          65.7933   91.8200   16.3493 H       1  UNL1        0.2112
     21 C          66.2734   92.8786   13.1044 C.ar    1  UNL1        0.0825
     22 C          67.2851   92.1127   12.3044 C.ar    1  UNL1        0.1157
     23 N          67.5987   92.9072   11.0712 N.ar    1  UNL1       -0.2228
     24 C          66.7808   94.1641   11.1091 C.ar    1  UNL1        0.1749
     25 N          65.9618   94.1464   12.3656 N.ar    1  UNL1       -0.3361
     26 H          65.3305   94.8444   12.6547 H       1  UNL1        0.1673
     27 C          67.7462   93.2795   15.7498 C.3     1  UNL1        0.0033
     28 C          66.4179   93.5549   15.1097 C.3     1  UNL1        0.0369
@<TRIPOS>BOND
     1    27    28    1
     2    28    18    1
     3    18    19    1
     4    18     1    1
     5     1     2   ar
     6     2     3   ar
     7     3     4   ar
     8     4     7    1
     9     7     8   ar
    10     8     9   ar
    11     9    10   ar
    12    10    11   ar
    13    11    13    1
    14    13    14   am
    15    14    15    1
    16    14    16    2
    17    11    12   ar
    18     4     5   ar
    19     5     6   ar
    20    18    21    1
    21    21    22   ar
    22    22    23   ar
    23    23    24   ar
    24    24    25   ar
    25     6     1   ar
    26    25    21   ar
    27    12     7   ar
    28    19    20    1
    29    13    17    1
    30    25    26    1
@<TRIPOS>MOLECULE
*****
 28 30 0 0 0
SMALL
GASTEIGER

@<TRIPOS>ATOM
      1 C          65.0817   91.4966   13.1163 C.ar    1  UNL1        0.0070
      2 C          64.1628   90.4824   12.5023 C.ar    1  UNL1       -0.0017
      3 C          63.7414   89.2778   13.2905 C.ar    1  UNL1       -0.0002
      4 C          64.2390   89.0874   14.6927 C.ar    1  UNL1        0.0000
      5 C          65.1579   90.1015   15.3067 C.ar    1  UNL1       -0.0002
      6 C          65.5793   91.3061   14.5185 C.ar    1  UNL1       -0.0017
      7 C          63.8176   87.8827   15.4809 C.ar    1  UNL1        0.0012
      8 C          63.0168   88.0514   16.7379 C.ar    1  UNL1        0.0001
      9 C          62.5954   86.8467   17.5261 C.ar    1  UNL1        0.0013
     10 C          62.9748   85.4733   17.0572 C.ar    1  UNL1        0.0147
     11 C          63.7756   85.3046   15.8001 C.ar    1  UNL1        0.0503
     12 C          64.1970   86.5093   15.0120 C.ar    1  UNL1        0.0147
     13 N          64.1550   83.9313   15.3312 N.am    1  UNL1       -0.2839
     14 C          63.4598   83.3237   14.1489 C.2     1  UNL1        0.2266
     15 C          63.8392   81.9504   13.6799 C.3     1  UNL1        0.0949
     16 O          62.3853   84.0896   13.4356 O.2     1  UNL1       -0.2748
     17 H          64.8603   83.4286   15.7993 H       1  UNL1        0.1549
     18 C          65.5031   92.7013   12.3281 C.3     1  UNL1        0.1411
     19 O          64.3773   92.4653   11.3654 O.3     1  UNL1       -0.3771
     20 H          63.8114   93.2524   11.3306 H       1  UNL1        0.2112
     21 C          66.6290   92.9372   13.2907 C.ar    1  UNL1        0.0825
     22 C          67.9428   92.2136   13.3053 C.ar    1  UNL1        0.1157
     23 N          68.7646   92.7674   14.4315 N.ar    1  UNL1       -0.2228
     24 C          67.9585   93.8333   15.1129 C.ar    1  UNL1        0.1749
     25 N          66.6387   93.9383   14.4079 N.ar    1  UNL1       -0.3361
     26 H          65.9072   94.5557   14.6380 H       1  UNL1        0.1673
     27 C          66.4494   93.7431   10.1443 C.3     1  UNL1        0.0033
     28 C          65.9245   93.9059   11.5400 C.3     1  UNL1        0.0369
@<TRIPOS>BOND
     1    27    28    1
     2    28    18    1
     3    18    19    1
     4    18     1    1
     5     1     2   ar
     6     2     3   ar
     7     3     4   ar
     8     4     7    1
     9     7     8   ar
    10     8     9   ar
    11     9    10   ar
    12    10    11   ar
    13    11    13    1
    14    13    14   am
    15    14    15    1
    16    14    16    2
    17    11    12   ar
    18     4     5   ar
    19     5     6   ar
    20    18    21    1
    21    21    22   ar
    22    22    23   ar
    23    23    24   ar
    24    24    25   ar
    25     6     1   ar
    26    25    21   ar
    27    12     7   ar
    28    19    20    1
    29    13    17    1
    30    25    26    1
@<TRIPOS>MOLECULE
*****
 28 30 0 0 0
SMALL
GASTEIGER

@<TRIPOS>ATOM
      1 C          64.9470   92.7823   11.4788 C.ar    1  UNL1        0.0070
      2 C          64.6685   91.8969   12.6571 C.ar    1  UNL1       -0.0017
      3 C          63.8368   90.6603   12.4861 C.ar    1  UNL1       -0.0002
      4 C          63.2836   90.3092   11.1368 C.ar    1  UNL1        0.0000
      5 C          63.5620   91.1947    9.9585 C.ar    1  UNL1       -0.0002
      6 C          64.3937   92.4312   10.1295 C.ar    1  UNL1       -0.0017
      7 C          62.4519   89.0726   10.9658 C.ar    1  UNL1        0.0012
      8 C          61.2718   89.0846   10.0400 C.ar    1  UNL1        0.0001
      9 C          60.4401   87.8480    9.8690 C.ar    1  UNL1        0.0013
     10 C          60.7885   86.5995   10.6240 C.ar    1  UNL1        0.0147
     11 C          61.9686   86.5876   11.5499 C.ar    1  UNL1        0.0503
     12 C          62.8003   87.8242   11.7208 C.ar    1  UNL1        0.0147
     13 N          62.3170   85.3392   12.3048 N.am    1  UNL1       -0.2839
     14 C          62.9790   84.1945   11.5966 C.2     1  UNL1        0.2266
     15 C          63.3274   82.9460   12.3515 C.3     1  UNL1        0.0949
     16 O          63.2926   84.2983   10.1334 O.2     1  UNL1       -0.2748
     17 H          62.1112   85.2710   13.2652 H       1  UNL1        0.1549
     18 C          65.7787   94.0189   11.6498 C.3     1  UNL1        0.1411
     19 O          65.0066   94.6899   10.5527 O.3     1  UNL1       -0.3771
     20 H          64.6083   95.5071   10.8908 H       1  UNL1        0.2112
     21 C          66.5507   93.3479   12.7469 C.ar    1  UNL1        0.0825
     22 C          66.5014   93.7020   14.2036 C.ar    1  UNL1        0.1157
     23 N          67.4279   92.7778   14.9370 N.ar    1  UNL1       -0.2228
     24 C          68.0498   91.8526   13.9333 C.ar    1  UNL1        0.1749
     25 N          67.5077   92.2048   12.5798 N.ar    1  UNL1       -0.3361
     26 H          67.7393   91.7634   11.7309 H       1  UNL1        0.1673
     27 C          66.0206   96.6027   11.5258 C.3     1  UNL1        0.0033
     28 C          66.6104   95.2554   11.8208 C.3     1  UNL1        0.0369
@<TRIPOS>BOND
     1    27    28    1
     2    28    18    1
     3    18    19    1
     4    18     1    1
     5     1     2   ar
     6     2     3   ar
     7     3     4   ar
     8     4     7    1
     9     7     8   ar
    10     8     9   ar
    11     9    10   ar
    12    10    11   ar
    13    11    13    1
    14    13    14   am
    15    14    15    1
    16    14    16    2
    17    11    12   ar
    18     4     5   ar
    19     5     6   ar
    20    18    21    1
    21    21    22   ar
    22    22    23   ar
    23    23    24   ar
    24    24    25   ar
    25     6     1   ar
    26    25    21   ar
    27    12     7   ar
    28    19    20    1
    29    13    17    1
    30    25    26    1
@<TRIPOS>MOLECULE
*****
 28 30 0 0 0
SMALL
GASTEIGER

@<TRIPOS>ATOM
      1 C          63.2716   83.9379   14.2658 C.ar    1  UNL1        0.0070
      2 C          63.6202   84.3923   15.6521 C.ar    1  UNL1       -0.0017
      3 C          63.8163   85.8521   15.9357 C.ar    1  UNL1       -0.0002
      4 C          63.6637   86.8575   14.8330 C.ar    1  UNL1        0.0000
      5 C          63.3151   86.4031   13.4467 C.ar    1  UNL1       -0.0002
      6 C          63.1190   84.9433   13.1631 C.ar    1  UNL1       -0.0017
      7 C          63.8597   88.3174   15.1167 C.ar    1  UNL1        0.0012
      8 C          63.3413   88.9095   16.3936 C.ar    1  UNL1        0.0001
      9 C          63.5374   90.3694   16.6773 C.ar    1  UNL1        0.0013
     10 C          64.2519   91.2371   15.6840 C.ar    1  UNL1        0.0147
     11 C          64.7703   90.6449   14.4070 C.ar    1  UNL1        0.0503
     12 C          64.5742   89.1851   14.1234 C.ar    1  UNL1        0.0147
     13 N          65.4847   91.5125   13.4137 N.am    1  UNL1       -0.2839
     14 C          64.8260   91.8613   12.1119 C.2     1  UNL1        0.2266
     15 C          65.5405   92.7290   11.1186 C.3     1  UNL1        0.0949
     16 O          63.4528   91.3424   11.8035 O.2     1  UNL1       -0.2748
     17 H          66.3860   91.8531   13.6161 H       1  UNL1        0.1549
     18 C          63.0755   82.4780   13.9822 C.3     1  UNL1        0.1411
     19 O          62.6175   82.2651   15.3945 O.3     1  UNL1       -0.3771
     20 H          61.7270   81.8804   15.3911 H       1  UNL1        0.2112
     21 C          63.5336   82.6910   12.5698 C.ar    1  UNL1        0.0825
     22 C          64.9540   82.8666   12.1206 C.ar    1  UNL1        0.1157
     23 N          64.9500   83.0499   10.6317 N.ar    1  UNL1       -0.2228
     24 C          63.5271   82.9876   10.1609 C.ar    1  UNL1        0.1749
     25 N          62.6518   82.7658   11.3586 N.ar    1  UNL1       -0.3361
     26 H          61.6707   82.6837   11.3512 H       1  UNL1        0.1673
     27 C          61.5153   80.4069   13.8214 C.3     1  UNL1        0.0033
     28 C          62.8795   81.0182   13.6985 C.3     1  UNL1        0.0369
@<TRIPOS>BOND
     1    27    28    1
     2    28    18    1
     3    18    19    1
     4    18     1    1
     5     1     2   ar
     6     2     3   ar
     7     3     4   ar
     8     4     7    1
     9     7     8   ar
    10     8     9   ar
    11     9    10   ar
    12    10    11   ar
    13    11    13    1
    14    13    14   am
    15    14    15    1
    16    14    16    2
    17    11    12   ar
    18     4     5   ar
    19     5     6   ar
    20    18    21    1
    21    21    22   ar
    22    22    23   ar
    23    23    24   ar
    24    24    25   ar
    25     6     1   ar
    26    25    21   ar
    27    12     7   ar
    28    19    20    1
    29    13    17    1
    30    25    26    1
