@<TRIPOS>MOLECULE
*****
 37 41 0 0 0
SMALL
GASTEIGER

@<TRIPOS>ATOM
      1 C          63.2961   83.7533   13.0107 C.3     1  UNL1        0.0553
      2 C          62.8937   85.0613   12.3967 C.ar    1  UNL1        0.0935
      3 N          62.0088   85.2376   11.1984 N.ar    1  UNL1       -0.1727
      4 N          61.8737   86.7081   10.9343 N.ar    1  UNL1       -0.2558
      5 C          62.6750   87.4405   11.9694 C.ar    1  UNL1        0.0704
      6 C          62.8204   88.9292   12.0810 C.3     1  UNL1        0.0531
      7 C          63.3054   86.4228   12.8733 C.ar    1  UNL1        0.0792
      8 C          61.0772   87.3358    9.8291 C.3     1  UNL1        0.1076
      9 C          60.4147   86.4714    8.7977 C.3     1  UNL1        0.0417
     10 C          59.6181   87.0992    7.6925 C.3     1  UNL1        0.0745
     11 N          59.4840   88.5914    7.6188 N.3     1  UNL1       -0.2649
     12 C          60.1465   89.4558    8.6502 C.3     1  UNL1        0.0745
     13 C          60.9431   88.8279    9.7554 C.3     1  UNL1        0.0417
     14 C          58.6874   89.2191    6.5136 C.3     1  UNL1        0.1586
     15 C          59.2928   90.3074    5.6774 C.2     1  UNL1        0.2421
     16 O          60.7831   90.4044    5.5372 O.2     1  UNL1       -0.2734
     17 N          58.4079   91.2986    4.9815 N.am    1  UNL1       -0.2749
     18 C          59.0133   92.3869    4.1453 C.3     1  UNL1        0.1149
     19 C          56.9176   91.2016    5.1217 C.3     1  UNL1        0.1149
     20 N          64.1918   86.7150   14.0474 N.pl3   1  UNL1       -0.2806
     21 H          64.8275   86.0341   14.3658 H       1  UNL1        0.1551
     22 C          64.1098   88.0448   14.7366 C.ar    1  UNL1        0.2208
     23 N          63.2405   88.2094   15.9478 N.ar    1  UNL1       -0.2111
     24 C          63.1584   89.5392   16.6370 C.ar    1  UNL1        0.1147
     25 C          63.9456   90.7044   16.1148 C.ar    1  UNL1        0.0946
     26 CL         63.8635   92.0342   16.8039 Cl      1  UNL1       -0.0790
     27 C          64.8149   90.5398   14.9034 C.ar    1  UNL1        0.0992
     28 N          64.8970   89.2100   14.2144 N.ar    1  UNL1       -0.2126
     29 C          65.6022   91.7050   14.3813 C.ar    1  UNL1        0.0572
     30 C          66.6189   92.4970   15.1487 C.ar    1  UNL1        0.1235
     31 N          67.1559   93.5642   14.2417 N.ar    1  UNL1       -0.1634
     32 N          66.4711   93.4318   12.9137 N.ar    1  UNL1       -0.2281
     33 C          66.5979   94.2090   11.6371 C.ar    1  UNL1        0.1004
     34 C          65.7644   93.8372   10.4468 C.ar    1  UNL1        0.0207
     35 C          64.8041   92.6881   10.5331 C.ar    1  UNL1        0.0031
     36 C          64.6773   91.9108   11.8097 C.ar    1  UNL1        0.0193
     37 C          65.5108   92.2827   13.0000 C.ar    1  UNL1        0.0858
@<TRIPOS>BOND
     1     1     2    1
     2     2     3   ar
     3     3     4   ar
     4     4     8    1
     5     8     9    1
     6     9    10    1
     7    10    11    1
     8    11    14    1
     9    14    15    1
    10    15    16    2
    11    15    17   am
    12    17    18    1
    13    17    19    1
    14    11    12    1
    15    12    13    1
    16     4     5   ar
    17     5     6    1
    18     5     7   ar
    19     7    20    1
    20    20    22    1
    21    22    23   ar
    22    23    24   ar
    23    24    25   ar
    24    25    26    1
    25    25    27   ar
    26    27    29    1
    27    29    30   ar
    28    30    31   ar
    29    31    32   ar
    30    32    33   ar
    31    33    34   ar
    32    34    35   ar
    33    35    36   ar
    34    36    37   ar
    35    27    28   ar
    36     7     2   ar
    37    28    22   ar
    38    13     8    1
    39    37    29   ar
    40    37    32   ar
    41    20    21    1
@<TRIPOS>MOLECULE
*****
 37 41 0 0 0
SMALL
GASTEIGER

@<TRIPOS>ATOM
      1 C          62.3690   86.9538   18.3942 C.3     1  UNL1        0.0553
      2 C          63.0444   87.3472   17.1140 C.ar    1  UNL1        0.0935
      3 N          63.1699   88.7417   16.5757 N.ar    1  UNL1       -0.1727
      4 N          63.9160   88.6715   15.2762 N.ar    1  UNL1       -0.2558
      5 C          64.2516   87.2337   15.0114 C.ar    1  UNL1        0.0704
      6 C          64.9952   86.7068   13.8201 C.3     1  UNL1        0.0531
      7 C          63.7129   86.4152   16.1472 C.ar    1  UNL1        0.0792
      8 C          64.2652   89.8348   14.3961 C.3     1  UNL1        0.1076
      9 C          63.5462   90.0330   13.0946 C.3     1  UNL1        0.0417
     10 C          63.8954   91.1964   12.2144 C.3     1  UNL1        0.0745
     11 N          64.9636   92.1615   12.6358 N.3     1  UNL1       -0.2649
     12 C          65.6826   91.9633   13.9372 C.3     1  UNL1        0.0745
     13 C          65.3333   90.7999   14.8173 C.3     1  UNL1        0.0417
     14 C          65.3128   93.3249   11.7556 C.3     1  UNL1        0.1586
     15 C          66.5210   93.2586   10.8691 C.2     1  UNL1        0.2421
     16 O          67.3794   92.0286   10.8620 O.2     1  UNL1       -0.2734
     17 N          66.8706   94.4224    9.9897 N.am    1  UNL1       -0.2749
     18 C          68.0788   94.3561    9.1031 C.3     1  UNL1        0.1149
     19 C          66.0122   95.6524    9.9968 C.3     1  UNL1        0.1149
     20 N          63.8233   84.9262   16.2911 N.pl3   1  UNL1       -0.2806
     21 H          64.1420   84.5357   17.1368 H       1  UNL1        0.1551
     22 C          63.4481   84.0322   15.1466 C.ar    1  UNL1        0.2208
     23 N          63.1184   82.5906   15.3978 N.ar    1  UNL1       -0.2111
     24 C          62.7432   81.6966   14.2533 C.ar    1  UNL1        0.1147
     25 C          62.6976   82.2442   12.8576 C.ar    1  UNL1        0.0946
     26 CL         62.3224   81.3502   11.7131 Cl      1  UNL1       -0.0790
     27 C          63.0273   83.6859   12.6064 C.ar    1  UNL1        0.0992
     28 N          63.4025   84.5798   13.7509 N.ar    1  UNL1       -0.2126
     29 C          62.9817   84.2334   11.2106 C.ar    1  UNL1        0.0572
     30 C          63.7244   83.6905   10.0258 C.ar    1  UNL1        0.1235
     31 N          63.3871   84.5416    8.8376 N.ar    1  UNL1       -0.1634
     32 N          62.4361   85.6105    9.2880 N.ar    1  UNL1       -0.2281
     33 C          61.7658   86.7327    8.5522 C.ar    1  UNL1        0.1004
     34 C          60.8450   87.6643    9.2829 C.ar    1  UNL1        0.0207
     35 C          60.5945   87.4739   10.7495 C.ar    1  UNL1        0.0031
     36 C          61.2647   86.3517   11.4854 C.ar    1  UNL1        0.0193
     37 C          62.1855   85.4201   10.7546 C.ar    1  UNL1        0.0858
@<TRIPOS>BOND
     1     1     2    1
     2     2     3   ar
     3     3     4   ar
     4     4     8    1
     5     8     9    1
     6     9    10    1
     7    10    11    1
     8    11    14    1
     9    14    15    1
    10    15    16    2
    11    15    17   am
    12    17    18    1
    13    17    19    1
    14    11    12    1
    15    12    13    1
    16     4     5   ar
    17     5     6    1
    18     5     7   ar
    19     7    20    1
    20    20    22    1
    21    22    23   ar
    22    23    24   ar
    23    24    25   ar
    24    25    26    1
    25    25    27   ar
    26    27    29    1
    27    29    30   ar
    28    30    31   ar
    29    31    32   ar
    30    32    33   ar
    31    33    34   ar
    32    34    35   ar
    33    35    36   ar
    34    36    37   ar
    35    27    28   ar
    36     7     2   ar
    37    28    22   ar
    38    13     8    1
    39    37    29   ar
    40    37    32   ar
    41    20    21    1
@<TRIPOS>MOLECULE
*****
 37 41 0 0 0
SMALL
GASTEIGER

@<TRIPOS>ATOM
      1 C          61.1011   90.4729   10.9131 C.3     1  UNL1        0.0553
      2 C          61.8583   89.3973   11.6339 C.ar    1  UNL1        0.0935
      3 N          61.8315   87.9326   11.3113 N.ar    1  UNL1       -0.1727
      4 N          62.7319   87.2275   12.2820 N.ar    1  UNL1       -0.2558
      5 C          63.3152   88.2564   13.2045 C.ar    1  UNL1        0.0704
      6 C          64.2706   87.9910   14.3299 C.3     1  UNL1        0.0531
      7 C          62.7753   89.5974   12.8040 C.ar    1  UNL1        0.0792
      8 C          63.0017   85.7526   12.3229 C.3     1  UNL1        0.1076
      9 C          62.3966   84.8505   11.2884 C.3     1  UNL1        0.0417
     10 C          62.6664   83.3755   11.3293 C.3     1  UNL1        0.0745
     11 N          63.5412   82.8027   12.4047 N.3     1  UNL1       -0.2649
     12 C          64.1462   83.7047   13.4392 C.3     1  UNL1        0.0745
     13 C          63.8764   85.1797   13.3982 C.3     1  UNL1        0.0417
     14 C          63.8109   81.3276   12.4456 C.3     1  UNL1        0.1586
     15 C          62.6832   80.3650   12.6726 C.2     1  UNL1        0.2421
     16 O          62.5642   79.1351   11.8221 O.2     1  UNL1       -0.2734
     17 N          61.6745   80.6321   13.7501 N.am    1  UNL1       -0.2749
     18 C          60.5468   79.6695   13.9771 C.3     1  UNL1        0.1149
     19 C          61.7935   81.8620   14.6007 C.3     1  UNL1        0.1149
     20 N          63.0960   90.9084   13.4586 N.pl3   1  UNL1       -0.2806
     21 H          62.3728   91.4612   13.8336 H       1  UNL1        0.1551
     22 C          64.5185   91.3770   13.5420 C.ar    1  UNL1        0.2208
     23 N          65.2748   91.2526   14.8314 N.ar    1  UNL1       -0.2111
     24 C          66.6972   91.7212   14.9147 C.ar    1  UNL1        0.1147
     25 C          67.3634   92.3142   13.7086 C.ar    1  UNL1        0.0946
     26 CL         68.7859   92.7828   13.7920 Cl      1  UNL1       -0.0790
     27 C          66.6070   92.4386   12.4192 C.ar    1  UNL1        0.0992
     28 N          65.1846   91.9700   12.3359 N.ar    1  UNL1       -0.2126
     29 C          67.2732   93.0316   11.2131 C.ar    1  UNL1        0.0572
     30 C          68.3885   92.4092   10.4265 C.ar    1  UNL1        0.1235
     31 N          68.7456   93.3441    9.3092 N.ar    1  UNL1       -0.1634
     32 N          67.8510   94.5443    9.4052 N.ar    1  UNL1       -0.2281
     33 C          67.7475   95.7881    8.5732 C.ar    1  UNL1        0.1004
     34 C          66.7340   96.8387    8.9179 C.ar    1  UNL1        0.0207
     35 C          65.8240   96.6456   10.0946 C.ar    1  UNL1        0.0031
     36 C          65.9275   95.4018   10.9266 C.ar    1  UNL1        0.0193
     37 C          66.9410   94.3512   10.5819 C.ar    1  UNL1        0.0858
@<TRIPOS>BOND
     1     1     2    1
     2     2     3   ar
     3     3     4   ar
     4     4     8    1
     5     8     9    1
     6     9    10    1
     7    10    11    1
     8    11    14    1
     9    14    15    1
    10    15    16    2
    11    15    17   am
    12    17    18    1
    13    17    19    1
    14    11    12    1
    15    12    13    1
    16     4     5   ar
    17     5     6    1
    18     5     7   ar
    19     7    20    1
    20    20    22    1
    21    22    23   ar
    22    23    24   ar
    23    24    25   ar
    24    25    26    1
    25    25    27   ar
    26    27    29    1
    27    29    30   ar
    28    30    31   ar
    29    31    32   ar
    30    32    33   ar
    31    33    34   ar
    32    34    35   ar
    33    35    36   ar
    34    36    37   ar
    35    27    28   ar
    36     7     2   ar
    37    28    22   ar
    38    13     8    1
    39    37    29   ar
    40    37    32   ar
    41    20    21    1
@<TRIPOS>MOLECULE
*****
 37 41 0 0 0
SMALL
GASTEIGER

@<TRIPOS>ATOM
      1 C          63.5844   83.2020   12.0094 C.3     1  UNL1        0.0553
      2 C          63.0237   84.5498   11.6644 C.ar    1  UNL1        0.0935
      3 N          62.2012   84.8791   10.4540 N.ar    1  UNL1       -0.1727
      4 N          61.8563   86.3379   10.5107 N.ar    1  UNL1       -0.2558
      5 C          62.4656   86.9101   11.7562 C.ar    1  UNL1        0.0704
      6 C          62.3701   88.3368   12.2092 C.3     1  UNL1        0.0531
      7 C          63.1871   85.8051   12.4693 C.ar    1  UNL1        0.0792
      8 C          61.0446   87.0919    9.4996 C.3     1  UNL1        0.1076
      9 C          61.0131   88.5913    9.5304 C.3     1  UNL1        0.0417
     10 C          60.2014   89.3454    8.5192 C.3     1  UNL1        0.0745
     11 N          59.4212   88.6000    7.4772 N.3     1  UNL1       -0.2649
     12 C          59.4526   87.1007    7.4464 C.3     1  UNL1        0.0745
     13 C          60.2644   86.3467    8.4576 C.3     1  UNL1        0.0417
     14 C          58.6094   89.3542    6.4660 C.3     1  UNL1        0.1586
     15 C          59.2670   90.3783    5.5893 C.2     1  UNL1        0.2421
     16 O          60.7598   90.3929    5.4429 O.2     1  UNL1       -0.2734
     17 N          58.4319   91.3877    4.8589 N.am    1  UNL1       -0.2749
     18 C          59.0895   92.4119    3.9821 C.3     1  UNL1        0.1149
     19 C          56.9391   91.3731    5.0052 C.3     1  UNL1        0.1149
     20 N          63.9398   85.9328   13.7604 N.pl3   1  UNL1       -0.2806
     21 H          64.4828   85.1806   14.0901 H       1  UNL1        0.1551
     22 C          63.8653   87.2064   14.5493 C.ar    1  UNL1        0.2208
     23 N          63.2357   87.2096   15.9107 N.ar    1  UNL1       -0.2111
     24 C          63.1612   88.4832   16.6996 C.ar    1  UNL1        0.1147
     25 C          63.7163   89.7536   16.1270 C.ar    1  UNL1        0.0946
     26 CL         63.6418   91.0272   16.9159 Cl      1  UNL1       -0.0790
     27 C          64.3460   89.7504   14.7655 C.ar    1  UNL1        0.0992
     28 N          64.4205   88.4768   13.9767 N.ar    1  UNL1       -0.2126
     29 C          64.9011   91.0209   14.1929 C.ar    1  UNL1        0.0572
     30 C          64.4170   91.7154   12.9547 C.ar    1  UNL1        0.1235
     31 N          65.2545   92.9436   12.7546 N.ar    1  UNL1       -0.1634
     32 N          66.2563   93.0081   13.8692 N.ar    1  UNL1       -0.2281
     33 C          67.3392   93.9954   14.1895 C.ar    1  UNL1        0.1004
     34 C          68.2036   93.7944   15.3988 C.ar    1  UNL1        0.0207
     35 C          67.9852   92.6061   16.2877 C.ar    1  UNL1        0.0031
     36 C          66.9023   91.6188   15.9674 C.ar    1  UNL1        0.0193
     37 C          66.0379   91.8198   14.7581 C.ar    1  UNL1        0.0858
@<TRIPOS>BOND
     1     1     2    1
     2     2     3   ar
     3     3     4   ar
     4     4     8    1
     5     8     9    1
     6     9    10    1
     7    10    11    1
     8    11    14    1
     9    14    15    1
    10    15    16    2
    11    15    17   am
    12    17    18    1
    13    17    19    1
    14    11    12    1
    15    12    13    1
    16     4     5   ar
    17     5     6    1
    18     5     7   ar
    19     7    20    1
    20    20    22    1
    21    22    23   ar
    22    23    24   ar
    23    24    25   ar
    24    25    26    1
    25    25    27   ar
    26    27    29    1
    27    29    30   ar
    28    30    31   ar
    29    31    32   ar
    30    32    33   ar
    31    33    34   ar
    32    34    35   ar
    33    35    36   ar
    34    36    37   ar
    35    27    28   ar
    36     7     2   ar
    37    28    22   ar
    38    13     8    1
    39    37    29   ar
    40    37    32   ar
    41    20    21    1
@<TRIPOS>MOLECULE
*****
 37 41 0 0 0
SMALL
GASTEIGER

@<TRIPOS>ATOM
      1 C          64.2589   89.1948   15.1440 C.3     1  UNL1        0.0553
      2 C          64.2337   90.0589   13.9181 C.ar    1  UNL1        0.0935
      3 N          65.1929   91.1676   13.6011 N.ar    1  UNL1       -0.1727
      4 N          64.7969   91.7599   12.2810 N.ar    1  UNL1       -0.2558
      5 C          63.5930   91.0172   11.7822 C.ar    1  UNL1        0.0704
      6 C          62.8650   91.2796   10.4974 C.3     1  UNL1        0.0531
      7 C          63.2448   89.9658   12.7940 C.ar    1  UNL1        0.0792
      8 C          65.4842   92.8955   11.5824 C.3     1  UNL1        0.1076
      9 C          65.5492   94.2462   12.2316 C.3     1  UNL1        0.0417
     10 C          66.2365   95.3818   11.5330 C.3     1  UNL1        0.0745
     11 N          66.8588   95.1667   10.1853 N.3     1  UNL1       -0.2649
     12 C          66.7938   93.8160    9.5361 C.3     1  UNL1        0.0745
     13 C          66.1065   92.6805   10.2347 C.3     1  UNL1        0.0417
     14 C          67.5461   96.3024    9.4867 C.3     1  UNL1        0.1586
     15 C          67.3101   96.5361    8.0239 C.2     1  UNL1        0.2421
     16 O          68.4749   96.6840    7.0905 O.2     1  UNL1       -0.2734
     17 N          65.9092   96.6218    7.4946 N.am    1  UNL1       -0.2749
     18 C          65.6732   96.8555    6.0318 C.3     1  UNL1        0.1149
     19 C          64.7444   96.4739    8.4280 C.3     1  UNL1        0.1149
     20 N          62.1076   88.9924   12.6985 N.pl3   1  UNL1       -0.2806
     21 H          61.3928   89.0026   13.3754 H       1  UNL1        0.1551
     22 C          62.0594   88.0035   11.5717 C.ar    1  UNL1        0.2208
     23 N          61.4812   88.4038   10.2468 N.ar    1  UNL1       -0.2111
     24 C          61.4329   87.4149    9.1200 C.ar    1  UNL1        0.1147
     25 C          61.9630   86.0257    9.3181 C.ar    1  UNL1        0.0946
     26 CL         61.9147   85.0367    8.1913 Cl      1  UNL1       -0.0790
     27 C          62.5412   85.6254   10.6431 C.ar    1  UNL1        0.0992
     28 N          62.5894   86.6143   11.7698 N.ar    1  UNL1       -0.2126
     29 C          63.0713   84.2362   10.8412 C.ar    1  UNL1        0.0572
     30 C          63.7760   83.4060    9.8097 C.ar    1  UNL1        0.1235
     31 N          64.1298   82.0900   10.4366 N.ar    1  UNL1       -0.1634
     32 N          63.6439   82.1070   11.8556 N.ar    1  UNL1       -0.2281
     33 C          63.7126   81.0860   12.9523 C.ar    1  UNL1        0.1004
     34 C          63.1270   81.3914   14.2991 C.ar    1  UNL1        0.0207
     35 C          62.4728   82.7178   14.5491 C.ar    1  UNL1        0.0031
     36 C          62.4041   83.7388   13.4524 C.ar    1  UNL1        0.0193
     37 C          62.9896   83.4334   12.1057 C.ar    1  UNL1        0.0858
@<TRIPOS>BOND
     1     1     2    1
     2     2     3   ar
     3     3     4   ar
     4     4     8    1
     5     8     9    1
     6     9    10    1
     7    10    11    1
     8    11    14    1
     9    14    15    1
    10    15    16    2
    11    15    17   am
    12    17    18    1
    13    17    19    1
    14    11    12    1
    15    12    13    1
    16     4     5   ar
    17     5     6    1
    18     5     7   ar
    19     7    20    1
    20    20    22    1
    21    22    23   ar
    22    23    24   ar
    23    24    25   ar
    24    25    26    1
    25    25    27   ar
    26    27    29    1
    27    29    30   ar
    28    30    31   ar
    29    31    32   ar
    30    32    33   ar
    31    33    34   ar
    32    34    35   ar
    33    35    36   ar
    34    36    37   ar
    35    27    28   ar
    36     7     2   ar
    37    28    22   ar
    38    13     8    1
    39    37    29   ar
    40    37    32   ar
    41    20    21    1
@<TRIPOS>MOLECULE
*****
 37 41 0 0 0
SMALL
GASTEIGER

@<TRIPOS>ATOM
      1 C          64.4491   86.1840   14.2033 C.3     1  UNL1        0.0553
      2 C          63.7347   87.2113   13.3760 C.ar    1  UNL1        0.0935
      3 N          62.9653   86.9486   12.1154 N.ar    1  UNL1       -0.1727
      4 N          62.4193   88.2566   11.6244 N.ar    1  UNL1       -0.2558
      5 C          62.8512   89.3277   12.5815 C.ar    1  UNL1        0.0704
      6 C          62.5271   90.7883   12.4749 C.3     1  UNL1        0.0531
      7 C          63.6641   88.6817   13.6641 C.ar    1  UNL1        0.0792
      8 C          61.5875   88.4581   10.3926 C.3     1  UNL1        0.1076
      9 C          61.1321   89.8358   10.0122 C.3     1  UNL1        0.0417
     10 C          60.3003   90.0373    8.7803 C.3     1  UNL1        0.0745
     11 N          59.9239   88.8611    7.9289 N.3     1  UNL1       -0.2649
     12 C          60.3793   87.4835    8.3092 C.3     1  UNL1        0.0745
     13 C          61.2111   87.2821    9.5411 C.3     1  UNL1        0.0417
     14 C          59.0920   89.0627    6.6970 C.3     1  UNL1        0.1586
     15 C          59.3875   90.2053    5.7711 C.2     1  UNL1        0.2421
     16 O          60.8083   90.5534    5.4390 O.2     1  UNL1       -0.2734
     17 N          58.2622   90.9998    5.1775 N.am    1  UNL1       -0.2749
     18 C          58.5577   92.1424    4.2516 C.3     1  UNL1        0.1149
     19 C          56.8414   90.6516    5.5096 C.3     1  UNL1        0.1149
     20 N          64.2957   89.3829   14.8301 N.pl3   1  UNL1       -0.2806
     21 H          64.2499   88.9831   15.7286 H       1  UNL1        0.1551
     22 C          64.9969   90.6933   14.6272 C.ar    1  UNL1        0.2208
     23 N          65.0259   91.7074   15.7320 N.ar    1  UNL1       -0.2111
     24 C          65.7271   93.0177   15.5291 C.ar    1  UNL1        0.1147
     25 C          66.3994   93.3140   14.2213 C.ar    1  UNL1        0.0946
     26 CL         67.1006   94.6244   14.0184 Cl      1  UNL1       -0.0790
     27 C          66.3704   92.2998   13.1164 C.ar    1  UNL1        0.0992
     28 N          65.6692   90.9896   13.3194 N.ar    1  UNL1       -0.2126
     29 C          67.0427   92.5961   11.8086 C.ar    1  UNL1        0.0572
     30 C          68.1462   91.7954   11.1832 C.ar    1  UNL1        0.1235
     31 N          68.5149   92.4496    9.8847 N.ar    1  UNL1       -0.1634
     32 N          67.6393   93.6546    9.7076 N.ar    1  UNL1       -0.2281
     33 C          67.5530   94.6810    8.6172 C.ar    1  UNL1        0.1004
     34 C          66.5567   95.7980    8.7159 C.ar    1  UNL1        0.0207
     35 C          65.6468   95.8885    9.9050 C.ar    1  UNL1        0.0031
     36 C          65.7331   94.8621   10.9953 C.ar    1  UNL1        0.0193
     37 C          66.7294   93.7451   10.8967 C.ar    1  UNL1        0.0858
@<TRIPOS>BOND
     1     1     2    1
     2     2     3   ar
     3     3     4   ar
     4     4     8    1
     5     8     9    1
     6     9    10    1
     7    10    11    1
     8    11    14    1
     9    14    15    1
    10    15    16    2
    11    15    17   am
    12    17    18    1
    13    17    19    1
    14    11    12    1
    15    12    13    1
    16     4     5   ar
    17     5     6    1
    18     5     7   ar
    19     7    20    1
    20    20    22    1
    21    22    23   ar
    22    23    24   ar
    23    24    25   ar
    24    25    26    1
    25    25    27   ar
    26    27    29    1
    27    29    30   ar
    28    30    31   ar
    29    31    32   ar
    30    32    33   ar
    31    33    34   ar
    32    34    35   ar
    33    35    36   ar
    34    36    37   ar
    35    27    28   ar
    36     7     2   ar
    37    28    22   ar
    38    13     8    1
    39    37    29   ar
    40    37    32   ar
    41    20    21    1
@<TRIPOS>MOLECULE
*****
 37 41 0 0 0
SMALL
GASTEIGER

@<TRIPOS>ATOM
      1 C          59.4616   89.4299    7.8687 C.3     1  UNL1        0.0553
      2 C          60.5838   89.3940    8.8633 C.ar    1  UNL1        0.0935
      3 N          61.3149   90.5838    9.4111 N.ar    1  UNL1       -0.1727
      4 N          62.3550   90.0871   10.3712 N.ar    1  UNL1       -0.2558
      5 C          62.2667   88.5904   10.4168 C.ar    1  UNL1        0.0704
      6 C          63.1226   87.6817   11.2482 C.3     1  UNL1        0.0531
      7 C          61.1721   88.1620    9.4849 C.ar    1  UNL1        0.0792
      8 C          63.3147   90.9378   11.1491 C.3     1  UNL1        0.1076
      9 C          64.1842   91.9308   10.4365 C.3     1  UNL1        0.0417
     10 C          65.1441   92.7816   11.2144 C.3     1  UNL1        0.0745
     11 N          65.2343   92.6391   12.7049 N.3     1  UNL1       -0.2649
     12 C          64.3648   91.6461   13.4175 C.3     1  UNL1        0.0745
     13 C          63.4050   90.7954   12.6395 C.3     1  UNL1        0.0417
     14 C          66.1942   93.4899   13.4828 C.3     1  UNL1        0.1586
     15 C          67.3520   92.8552   14.1945 C.2     1  UNL1        0.2421
     16 O          68.6155   92.5486   13.4463 O.2     1  UNL1       -0.2734
     17 N          67.2464   92.5271   15.6543 N.am    1  UNL1       -0.2749
     18 C          68.4043   91.8924   16.3660 C.3     1  UNL1        0.1149
     19 C          65.9830   92.8337   16.4025 C.3     1  UNL1        0.1149
     20 N          60.7413   86.7497    9.2208 N.pl3   1  UNL1       -0.2806
     21 H          59.8551   86.5700    8.8314 H       1  UNL1        0.1551
     22 C          61.6606   85.6111    9.5501 C.ar    1  UNL1        0.2208
     23 N          62.4987   84.9883    8.4732 N.ar    1  UNL1       -0.2111
     24 C          63.4180   83.8497    8.8025 C.ar    1  UNL1        0.1147
     25 C          63.4992   83.3339   10.2087 C.ar    1  UNL1        0.0946
     26 CL         64.4185   82.1953   10.5380 Cl      1  UNL1       -0.0790
     27 C          62.6611   83.9567   11.2857 C.ar    1  UNL1        0.0992
     28 N          61.7418   85.0953   10.9563 N.ar    1  UNL1       -0.2126
     29 C          62.7423   83.4409   12.6918 C.ar    1  UNL1        0.0572
     30 C          62.3792   82.0583   13.1461 C.ar    1  UNL1        0.1235
     31 N          62.6134   81.9801   14.6257 N.ar    1  UNL1       -0.1634
     32 N          63.1212   83.3144   15.0858 N.ar    1  UNL1       -0.2281
     33 C          63.5214   83.8239   16.4386 C.ar    1  UNL1        0.1004
     34 C          64.0012   85.2363   16.5963 C.ar    1  UNL1        0.0207
     35 C          64.0808   86.1392   15.4011 C.ar    1  UNL1        0.0031
     36 C          63.6807   85.6297   14.0482 C.ar    1  UNL1        0.0193
     37 C          63.2009   84.2173   13.8906 C.ar    1  UNL1        0.0858
@<TRIPOS>BOND
     1     1     2    1
     2     2     3   ar
     3     3     4   ar
     4     4     8    1
     5     8     9    1
     6     9    10    1
     7    10    11    1
     8    11    14    1
     9    14    15    1
    10    15    16    2
    11    15    17   am
    12    17    18    1
    13    17    19    1
    14    11    12    1
    15    12    13    1
    16     4     5   ar
    17     5     6    1
    18     5     7   ar
    19     7    20    1
    20    20    22    1
    21    22    23   ar
    22    23    24   ar
    23    24    25   ar
    24    25    26    1
    25    25    27   ar
    26    27    29    1
    27    29    30   ar
    28    30    31   ar
    29    31    32   ar
    30    32    33   ar
    31    33    34   ar
    32    34    35   ar
    33    35    36   ar
    34    36    37   ar
    35    27    28   ar
    36     7     2   ar
    37    28    22   ar
    38    13     8    1
    39    37    29   ar
    40    37    32   ar
    41    20    21    1
