@<TRIPOS>MOLECULE
*****
 30 33 0 0 0
SMALL
GASTEIGER

@<TRIPOS>ATOM
      1 C          65.6370   93.1581   12.3098 C.ar    1  UNL1        0.0938
      2 C          65.9150   92.9763   13.7725 C.ar    1  UNL1        0.0481
      3 N          66.8239   93.9315   14.4876 N.pl3   1  UNL1       -0.3568
      4 C          65.2841   91.8391   14.5202 C.ar    1  UNL1        0.0144
      5 C          64.3752   90.8839   13.8051 C.ar    1  UNL1        0.0036
      6 C          64.0972   91.0657   12.3423 C.ar    1  UNL1        0.0300
      7 C          64.7281   92.2027   11.5947 C.ar    1  UNL1        0.1457
      8 F          64.4501   92.3845   10.1319 F       1  UNL1       -0.2040
      9 H          67.2380   94.6779   13.9969 H       1  UNL1        0.1424
     10 H          67.0063   93.8122   15.4477 H       1  UNL1        0.1424
     11 C          63.1884   90.1104   11.6272 C.ar    1  UNL1        0.0317
     12 C          62.2766   90.6097   10.5459 C.ar    1  UNL1        0.1011
     13 N          61.3677   89.6544    9.8308 N.ar    1  UNL1       -0.2297
     14 C          61.3706   88.1998   10.1971 C.ar    1  UNL1        0.1253
     15 C          62.2824   87.7005   11.2784 C.ar    1  UNL1        0.0208
     16 C          63.1912   88.6558   11.9935 C.ar    1  UNL1        0.0579
     17 CL         64.1030   88.1565   13.0749 Cl      1  UNL1       -0.0824
     18 C          62.0667   86.2230   11.4211 C.3     1  UNL1        0.0404
     19 C          63.1118   86.6369   12.4143 C.3     1  UNL1        0.0058
     20 C          63.5419   85.4151   13.1708 C.3     1  UNL1        0.0004
     21 C          62.7627   84.2461   12.6451 C.3     1  UNL1        0.0004
     22 C          61.8510   84.7454   11.5637 C.3     1  UNL1        0.0058
     23 C          61.0215   85.8091   10.4278 C.3     1  UNL1        0.0922
     24 N          60.5914   87.0309    9.6714 N.pl3   1  UNL1       -0.3181
     25 H          59.9162   87.0603    8.9555 H       1  UNL1        0.1482
     26 C          67.8125   95.1541    9.6577 C.3     1  UNL1        0.1152
     27 N          67.1815   94.0170   10.4055 N.am    1  UNL1       -0.2725
     28 C          67.4643   92.6018    9.9965 C.3     1  UNL1        0.1152
     29 C          66.2679   94.2951   11.5621 C.2     1  UNL1        0.2525
     30 O          65.9851   95.7103   11.9710 O.2     1  UNL1       -0.2698
@<TRIPOS>BOND
     1    26    27    1
     2    27    28    1
     3    27    29   am
     4    29    30    2
     5    29     1    1
     6     1     2   ar
     7     2     3    1
     8     2     4   ar
     9     4     5   ar
    10     5     6   ar
    11     6    11    1
    12    11    12   ar
    13    12    13   ar
    14    13    14   ar
    15    14    15   ar
    16    15    16   ar
    17    16    17    1
    18    15    18    1
    19    18    19    1
    20    19    20    1
    21    20    21    1
    22    21    22    1
    23    18    23    1
    24    23    24    1
    25     6     7   ar
    26     7     8    1
    27     7     1   ar
    28    16    11   ar
    29    22    18    1
    30    24    14    1
    31     3     9    1
    32     3    10    1
    33    24    25    1
@<TRIPOS>MOLECULE
*****
 30 33 0 0 0
SMALL
GASTEIGER

@<TRIPOS>ATOM
      1 C          61.9894   86.9309   11.0491 C.ar    1  UNL1        0.0938
      2 C          60.8253   87.4700   10.2718 C.ar    1  UNL1        0.0481
      3 N          59.9822   86.5448    9.4454 N.pl3   1  UNL1       -0.3568
      4 C          60.5043   88.9345   10.3211 C.ar    1  UNL1        0.0144
      5 C          61.3473   89.8597   11.1475 C.ar    1  UNL1        0.0036
      6 C          62.5115   89.3206   11.9248 C.ar    1  UNL1        0.0300
      7 C          62.8325   87.8562   11.8756 C.ar    1  UNL1        0.1457
      8 F          63.9967   87.3171   12.6528 F       1  UNL1       -0.2040
      9 H          60.1929   85.5836    9.4131 H       1  UNL1        0.1424
     10 H          59.2181   86.8986    8.9352 H       1  UNL1        0.1424
     11 C          63.3546   90.2458   12.7512 C.ar    1  UNL1        0.0317
     12 C          63.3967   90.0912   14.2426 C.ar    1  UNL1        0.1011
     13 N          64.2398   91.0165   15.0691 N.ar    1  UNL1       -0.2297
     14 C          65.0408   92.0964   14.4041 C.ar    1  UNL1        0.1253
     15 C          64.9987   92.2511   12.9127 C.ar    1  UNL1        0.0208
     16 C          64.1556   91.3258   12.0863 C.ar    1  UNL1        0.0579
     17 CL         64.1135   91.4805   10.5949 Cl      1  UNL1       -0.0824
     18 C          65.8884   93.3999   12.5404 C.3     1  UNL1        0.0404
     19 C          65.2964   92.8445   11.2791 C.3     1  UNL1        0.0058
     20 C          65.8203   93.6502   10.1273 C.3     1  UNL1        0.0004
     21 C          66.7360   94.7034   10.6769 C.3     1  UNL1        0.0004
     22 C          66.7782   94.5488   12.1683 C.3     1  UNL1        0.0058
     23 C          66.4805   93.9553   13.8019 C.3     1  UNL1        0.0922
     24 N          65.9566   93.1497   14.9536 N.pl3   1  UNL1       -0.3181
     25 H          66.1754   93.2879   15.9035 H       1  UNL1        0.1482
     26 C          63.2158   83.4038    9.7054 C.3     1  UNL1        0.1152
     27 N          62.8947   84.8682    9.7546 N.am    1  UNL1       -0.2725
     28 C          63.1579   85.7344    8.5586 C.3     1  UNL1        0.1152
     29 C          62.3105   85.4665   10.9999 C.2     1  UNL1        0.2525
     30 O          62.0473   84.6004   12.1959 O.2     1  UNL1       -0.2698
@<TRIPOS>BOND
     1    26    27    1
     2    27    28    1
     3    27    29   am
     4    29    30    2
     5    29     1    1
     6     1     2   ar
     7     2     3    1
     8     2     4   ar
     9     4     5   ar
    10     5     6   ar
    11     6    11    1
    12    11    12   ar
    13    12    13   ar
    14    13    14   ar
    15    14    15   ar
    16    15    16   ar
    17    16    17    1
    18    15    18    1
    19    18    19    1
    20    19    20    1
    21    20    21    1
    22    21    22    1
    23    18    23    1
    24    23    24    1
    25     6     7   ar
    26     7     8    1
    27     7     1   ar
    28    16    11   ar
    29    22    18    1
    30    24    14    1
    31     3     9    1
    32     3    10    1
    33    24    25    1
@<TRIPOS>MOLECULE
*****
 30 33 0 0 0
SMALL
GASTEIGER

@<TRIPOS>ATOM
      1 C          65.3468   92.0746   14.7389 C.ar    1  UNL1        0.0938
      2 C          64.7190   91.8650   16.0849 C.ar    1  UNL1        0.0481
      3 N          65.2443   92.6027   17.2806 N.pl3   1  UNL1       -0.3568
      4 C          63.5658   90.9175   16.2352 C.ar    1  UNL1        0.0144
      5 C          63.0405   90.1798   15.0396 C.ar    1  UNL1        0.0036
      6 C          63.6683   90.3894   13.6935 C.ar    1  UNL1        0.0300
      7 C          64.8215   91.3368   13.5431 C.ar    1  UNL1        0.1457
      8 F          65.4493   91.5464   12.1971 F       1  UNL1       -0.2040
      9 H          66.0011   93.2246   17.1819 H       1  UNL1        0.1424
     10 H          64.8322   92.4652   18.1641 H       1  UNL1        0.1424
     11 C          63.1430   89.6516   12.4978 C.ar    1  UNL1        0.0317
     12 C          62.6012   90.4135   11.3249 C.ar    1  UNL1        0.1011
     13 N          62.0758   89.6757   10.1291 N.ar    1  UNL1       -0.2297
     14 C          62.0924   88.1760   10.1064 C.ar    1  UNL1        0.1253
     15 C          62.6343   87.4140   11.2793 C.ar    1  UNL1        0.0208
     16 C          63.1596   88.1518   12.4750 C.ar    1  UNL1        0.0579
     17 CL         63.7015   87.3899   13.6480 Cl      1  UNL1       -0.0824
     18 C          62.5225   85.9499   10.9728 C.3     1  UNL1        0.0404
     19 C          63.1335   86.0929   12.3352 C.3     1  UNL1        0.0058
     20 C          63.3993   84.7171   12.8706 C.3     1  UNL1        0.0004
     21 C          62.9525   83.7239   11.8391 C.3     1  UNL1        0.0004
     22 C          62.4106   84.4859   10.6662 C.3     1  UNL1        0.0058
     23 C          61.9114   85.8070    9.6103 C.3     1  UNL1        0.0922
     24 N          61.6457   87.1828    9.0749 N.pl3   1  UNL1       -0.3181
     25 H          61.2479   87.3964    8.2001 H       1  UNL1        0.1482
     26 C          69.0187   93.5702   14.9137 C.3     1  UNL1        0.1152
     27 N          67.8654   92.6228   15.0640 N.am    1  UNL1       -0.2725
     28 C          68.0777   91.2763   15.6899 C.3     1  UNL1        0.1152
     29 C          66.5000   93.0220   14.5885 C.2     1  UNL1        0.2525
     30 O          66.2877   94.3685   13.9626 O.2     1  UNL1       -0.2698
@<TRIPOS>BOND
     1    26    27    1
     2    27    28    1
     3    27    29   am
     4    29    30    2
     5    29     1    1
     6     1     2   ar
     7     2     3    1
     8     2     4   ar
     9     4     5   ar
    10     5     6   ar
    11     6    11    1
    12    11    12   ar
    13    12    13   ar
    14    13    14   ar
    15    14    15   ar
    16    15    16   ar
    17    16    17    1
    18    15    18    1
    19    18    19    1
    20    19    20    1
    21    20    21    1
    22    21    22    1
    23    18    23    1
    24    23    24    1
    25     6     7   ar
    26     7     8    1
    27     7     1   ar
    28    16    11   ar
    29    22    18    1
    30    24    14    1
    31     3     9    1
    32     3    10    1
    33    24    25    1
@<TRIPOS>MOLECULE
*****
 30 33 0 0 0
SMALL
GASTEIGER

@<TRIPOS>ATOM
      1 C          62.2079   89.3244   12.0345 C.ar    1  UNL1        0.0938
      2 C          61.0187   89.8480   11.2850 C.ar    1  UNL1        0.0481
      3 N          60.5325   91.2454   11.5317 N.pl3   1  UNL1       -0.3568
      4 C          60.3158   88.9742   10.2888 C.ar    1  UNL1        0.0144
      5 C          60.8020   87.5768   10.0421 C.ar    1  UNL1        0.0036
      6 C          61.9912   87.0532   10.7916 C.ar    1  UNL1        0.0300
      7 C          62.6941   87.9270   11.7877 C.ar    1  UNL1        0.1457
      8 F          63.8833   87.4033   12.5372 F       1  UNL1       -0.2040
      9 H          60.9939   91.8189   12.1855 H       1  UNL1        0.1424
     10 H          59.7520   91.5890   11.0398 H       1  UNL1        0.1424
     11 C          62.4774   85.6558   10.5449 C.ar    1  UNL1        0.0317
     12 C          62.9981   85.2708    9.1919 C.ar    1  UNL1        0.1011
     13 N          63.4843   83.8733    8.9452 N.ar    1  UNL1       -0.2297
     14 C          63.4498   82.8610   10.0515 C.ar    1  UNL1        0.1253
     15 C          62.9291   83.2461   11.4045 C.ar    1  UNL1        0.0208
     16 C          62.4429   84.6434   11.6512 C.ar    1  UNL1        0.0579
     17 CL         61.9222   85.0285   13.0042 Cl      1  UNL1       -0.0824
     18 C          63.0162   82.0419   12.2947 C.3     1  UNL1        0.0404
     19 C          62.4417   83.1712   13.0975 C.3     1  UNL1        0.0058
     20 C          62.1737   82.6649   14.4838 C.3     1  UNL1        0.0004
     21 C          62.5827   81.2227   14.5378 C.3     1  UNL1        0.0004
     22 C          63.1034   80.8376   13.1848 C.3     1  UNL1        0.0058
     23 C          63.5908   80.9125   11.4918 C.3     1  UNL1        0.0922
     24 N          63.8588   81.4188   10.1055 N.pl3   1  UNL1       -0.3181
     25 H          64.2367   80.8963    9.3616 H       1  UNL1        0.1482
     26 C          64.5849   92.1141   13.5567 C.3     1  UNL1        0.1152
     27 N          63.8819   91.2403   12.5606 N.am    1  UNL1       -0.2725
     28 C          64.1500   91.4086   11.0943 C.3     1  UNL1        0.1152
     29 C          62.9108   90.1982   13.0306 C.2     1  UNL1        0.2525
     30 O          62.6427   90.0298   14.4968 O.2     1  UNL1       -0.2698
@<TRIPOS>BOND
     1    26    27    1
     2    27    28    1
     3    27    29   am
     4    29    30    2
     5    29     1    1
     6     1     2   ar
     7     2     3    1
     8     2     4   ar
     9     4     5   ar
    10     5     6   ar
    11     6    11    1
    12    11    12   ar
    13    12    13   ar
    14    13    14   ar
    15    14    15   ar
    16    15    16   ar
    17    16    17    1
    18    15    18    1
    19    18    19    1
    20    19    20    1
    21    20    21    1
    22    21    22    1
    23    18    23    1
    24    23    24    1
    25     6     7   ar
    26     7     8    1
    27     7     1   ar
    28    16    11   ar
    29    22    18    1
    30    24    14    1
    31     3     9    1
    32     3    10    1
    33    24    25    1
@<TRIPOS>MOLECULE
*****
 30 33 0 0 0
SMALL
GASTEIGER

@<TRIPOS>ATOM
      1 C          65.5041   92.1555   13.5527 C.ar    1  UNL1        0.0938
      2 C          65.6354   93.2034   12.4874 C.ar    1  UNL1        0.0481
      3 N          66.4128   94.4568   12.7601 N.pl3   1  UNL1       -0.3568
      4 C          64.9892   92.9977   11.1494 C.ar    1  UNL1        0.0144
      5 C          64.2118   91.7442   10.8768 C.ar    1  UNL1        0.0036
      6 C          64.0805   90.6964   11.9420 C.ar    1  UNL1        0.0300
      7 C          64.7267   90.9020   13.2800 C.ar    1  UNL1        0.1457
      8 F          64.5954   89.8542   14.3453 F       1  UNL1       -0.2040
      9 H          66.8369   94.5918   13.6383 H       1  UNL1        0.1424
     10 H          66.4990   95.1446   12.0609 H       1  UNL1        0.1424
     11 C          63.3031   89.4429   11.6694 C.ar    1  UNL1        0.0317
     12 C          63.5193   88.2263   12.5197 C.ar    1  UNL1        0.1011
     13 N          62.7418   86.9728   12.2470 N.ar    1  UNL1       -0.2297
     14 C          61.7482   86.9360   11.1240 C.ar    1  UNL1        0.1253
     15 C          61.5319   88.1526   10.2736 C.ar    1  UNL1        0.0208
     16 C          62.3093   89.4060   10.5463 C.ar    1  UNL1        0.0579
     17 CL         62.0931   90.6227    9.6960 Cl      1  UNL1       -0.0824
     18 C          60.4925   87.8201    9.2444 C.3     1  UNL1        0.0404
     19 C          60.9186   89.2422    9.0302 C.3     1  UNL1        0.0058
     20 C          60.1426   89.7886    7.8686 C.3     1  UNL1        0.0004
     21 C          59.2369   88.7041    7.3650 C.3     1  UNL1        0.0004
     22 C          59.4532   87.4875    8.2153 C.3     1  UNL1        0.0058
     23 C          60.0664   86.3979    9.4587 C.3     1  UNL1        0.0922
     24 N          60.8424   85.8515   10.6203 N.pl3   1  UNL1       -0.3181
     25 H          60.7700   84.9410   10.9877 H       1  UNL1        0.1482
     26 C          68.2813   92.4133   16.3759 C.3     1  UNL1        0.1152
     27 N          67.6351   92.2077   15.0379 N.am    1  UNL1       -0.2725
     28 C          68.4737   91.8485   13.8473 C.3     1  UNL1        0.1152
     29 C          66.1503   92.3612   14.8907 C.2     1  UNL1        0.2525
     30 O          65.3116   92.7203   16.0813 O.2     1  UNL1       -0.2698
@<TRIPOS>BOND
     1    26    27    1
     2    27    28    1
     3    27    29   am
     4    29    30    2
     5    29     1    1
     6     1     2   ar
     7     2     3    1
     8     2     4   ar
     9     4     5   ar
    10     5     6   ar
    11     6    11    1
    12    11    12   ar
    13    12    13   ar
    14    13    14   ar
    15    14    15   ar
    16    15    16   ar
    17    16    17    1
    18    15    18    1
    19    18    19    1
    20    19    20    1
    21    20    21    1
    22    21    22    1
    23    18    23    1
    24    23    24    1
    25     6     7   ar
    26     7     8    1
    27     7     1   ar
    28    16    11   ar
    29    22    18    1
    30    24    14    1
    31     3     9    1
    32     3    10    1
    33    24    25    1
@<TRIPOS>MOLECULE
*****
 30 33 0 0 0
SMALL
GASTEIGER

@<TRIPOS>ATOM
      1 C          64.2468   89.8364   13.3519 C.ar    1  UNL1        0.0938
      2 C          63.4833   90.2007   12.1132 C.ar    1  UNL1        0.0481
      3 N          63.5261   91.6066   11.5921 N.pl3   1  UNL1       -0.3568
      4 C          62.6769   89.1590   11.3957 C.ar    1  UNL1        0.0144
      5 C          62.6341   87.7531   11.9168 C.ar    1  UNL1        0.0036
      6 C          63.3976   87.3888   13.1555 C.ar    1  UNL1        0.0300
      7 C          64.2039   88.4304   13.8730 C.ar    1  UNL1        0.1457
      8 F          64.9674   88.0661   15.1117 F       1  UNL1       -0.2040
      9 H          64.0553   92.2902   12.0631 H       1  UNL1        0.1424
     10 H          63.0249   91.8457   10.7791 H       1  UNL1        0.1424
     11 C          63.3548   85.9829   13.6766 C.ar    1  UNL1        0.0317
     12 C          63.3569   85.7308   15.1552 C.ar    1  UNL1        0.1011
     13 N          63.3141   84.3248   15.6763 N.ar    1  UNL1       -0.2297
     14 C          63.2692   83.1711   14.7188 C.ar    1  UNL1        0.1253
     15 C          63.2671   83.4233   13.2402 C.ar    1  UNL1        0.0208
     16 C          63.3099   84.8291   12.7190 C.ar    1  UNL1        0.0579
     17 CL         63.3078   85.0813   11.2404 Cl      1  UNL1       -0.0824
     18 C          63.2183   82.0957   12.5435 C.3     1  UNL1        0.0404
     19 C          63.2463   83.1684   11.4954 C.3     1  UNL1        0.0058
     20 C          63.2148   82.5037   10.1511 C.3     1  UNL1        0.0004
     21 C          63.1673   81.0203   10.3683 C.3     1  UNL1        0.0004
     22 C          63.1695   80.7681   11.8470 C.3     1  UNL1        0.0058
     23 C          63.1902   81.0230   13.5917 C.3     1  UNL1        0.0922
     24 N          63.2217   81.6876   14.9361 N.pl3   1  UNL1       -0.3181
     25 H          63.2127   81.2305   15.8080 H       1  UNL1        0.1482
     26 C          65.4858   92.3285   16.1811 C.3     1  UNL1        0.1152
     27 N          64.6795   91.2868   15.4634 N.am    1  UNL1       -0.2725
     28 C          63.4995   90.6542   16.1398 C.3     1  UNL1        0.1152
     29 C          65.0531   90.8779   14.0695 C.2     1  UNL1        0.2525
     30 O          66.2330   91.5106   13.3931 O.2     1  UNL1       -0.2698
@<TRIPOS>BOND
     1    26    27    1
     2    27    28    1
     3    27    29   am
     4    29    30    2
     5    29     1    1
     6     1     2   ar
     7     2     3    1
     8     2     4   ar
     9     4     5   ar
    10     5     6   ar
    11     6    11    1
    12    11    12   ar
    13    12    13   ar
    14    13    14   ar
    15    14    15   ar
    16    15    16   ar
    17    16    17    1
    18    15    18    1
    19    18    19    1
    20    19    20    1
    21    20    21    1
    22    21    22    1
    23    18    23    1
    24    23    24    1
    25     6     7   ar
    26     7     8    1
    27     7     1   ar
    28    16    11   ar
    29    22    18    1
    30    24    14    1
    31     3     9    1
    32     3    10    1
    33    24    25    1
@<TRIPOS>MOLECULE
*****
 30 33 0 0 0
SMALL
GASTEIGER

@<TRIPOS>ATOM
      1 C          63.0142   88.8578   12.2829 C.ar    1  UNL1        0.0938
      2 C          63.9536   89.6534   13.1400 C.ar    1  UNL1        0.0481
      3 N          64.2075   91.0993   12.8323 N.pl3   1  UNL1       -0.3568
      4 C          64.6391   89.0029   14.3050 C.ar    1  UNL1        0.0144
      5 C          64.3852   87.5570   14.6128 C.ar    1  UNL1        0.0036
      6 C          63.4458   86.7614   13.7557 C.ar    1  UNL1        0.0300
      7 C          62.7604   87.4118   12.5908 C.ar    1  UNL1        0.1457
      8 F          61.8210   86.6163   11.7336 F       1  UNL1       -0.2040
      9 H          63.7576   91.5262   12.0677 H       1  UNL1        0.1424
     10 H          64.8241   91.6214   13.3948 H       1  UNL1        0.1424
     11 C          63.1920   85.3155   14.0635 C.ar    1  UNL1        0.0317
     12 C          62.8697   84.8926   15.4661 C.ar    1  UNL1        0.1011
     13 N          62.6158   83.4466   15.7738 N.ar    1  UNL1       -0.2297
     14 C          62.6842   82.4236   14.6790 C.ar    1  UNL1        0.1253
     15 C          63.0064   82.8465   13.2764 C.ar    1  UNL1        0.0208
     16 C          63.2603   84.2924   12.9686 C.ar    1  UNL1        0.0579
     17 CL         63.5826   84.7153   11.5660 Cl      1  UNL1       -0.0824
     18 C          63.0042   81.6214   12.4108 C.3     1  UNL1        0.0404
     19 C          63.3278   82.8014   11.5431 C.3     1  UNL1        0.0058
     20 C          63.5256   82.3057   10.1413 C.3     1  UNL1        0.0004
     21 C          63.3241   80.8192   10.1426 C.3     1  UNL1        0.0004
     22 C          63.0019   80.3963   11.5452 C.3     1  UNL1        0.0058
     23 C          62.6805   80.4414   13.2785 C.3     1  UNL1        0.0922
     24 N          62.4827   80.9371   14.6803 N.pl3   1  UNL1       -0.3181
     25 H          62.2598   80.3841   15.4636 H       1  UNL1        0.1482
     26 C          60.1620   90.3925    9.9896 C.3     1  UNL1        0.1152
     27 N          60.8476   89.7421   11.1545 N.am    1  UNL1       -0.2725
     28 C          60.0519   89.3256   12.3560 C.3     1  UNL1        0.1152
     29 C          62.3287   89.5082   11.1180 C.2     1  UNL1        0.2525
     30 O          63.1244   89.9247    9.9166 O.2     1  UNL1       -0.2698
@<TRIPOS>BOND
     1    26    27    1
     2    27    28    1
     3    27    29   am
     4    29    30    2
     5    29     1    1
     6     1     2   ar
     7     2     3    1
     8     2     4   ar
     9     4     5   ar
    10     5     6   ar
    11     6    11    1
    12    11    12   ar
    13    12    13   ar
    14    13    14   ar
    15    14    15   ar
    16    15    16   ar
    17    16    17    1
    18    15    18    1
    19    18    19    1
    20    19    20    1
    21    20    21    1
    22    21    22    1
    23    18    23    1
    24    23    24    1
    25     6     7   ar
    26     7     8    1
    27     7     1   ar
    28    16    11   ar
    29    22    18    1
    30    24    14    1
    31     3     9    1
    32     3    10    1
    33    24    25    1
@<TRIPOS>MOLECULE
*****
 30 33 0 0 0
SMALL
GASTEIGER

@<TRIPOS>ATOM
      1 C          56.6930   93.2996   -2.5945 C.ar    1  UNL1        0.0938
      2 C          55.8084   94.3172   -1.9374 C.ar    1  UNL1        0.0481
      3 N          54.3176   94.2055   -2.0593 N.pl3   1  UNL1       -0.3568
      4 C          56.4147   95.4467   -1.1584 C.ar    1  UNL1        0.0144
      5 C          57.9056   95.5584   -1.0366 C.ar    1  UNL1        0.0036
      6 C          58.7902   94.5408   -1.6937 C.ar    1  UNL1        0.0300
      7 C          58.1839   93.4113   -2.4727 C.ar    1  UNL1        0.1457
      8 F          59.0685   92.3937   -3.1298 F       1  UNL1       -0.2040
      9 H          53.9197   93.4642   -2.5705 H       1  UNL1        0.1424
     10 H          53.7370   94.8734   -1.6280 H       1  UNL1        0.1424
     11 C          60.2810   94.6525   -1.5718 C.ar    1  UNL1        0.0317
     12 C          61.0540   95.4802   -2.5554 C.ar    1  UNL1        0.1011
     13 N          62.5449   95.5919   -2.4335 N.ar    1  UNL1       -0.2297
     14 C          63.2627   94.8760   -1.3281 C.ar    1  UNL1        0.1253
     15 C          62.4898   94.0483   -0.3445 C.ar    1  UNL1        0.0208
     16 C          60.9989   93.9365   -0.4663 C.ar    1  UNL1        0.0579
     17 CL         60.2260   93.1089    0.5173 Cl      1  UNL1       -0.0824
     18 C          63.4637   93.4607    0.6334 C.3     1  UNL1        0.0404
     19 C          62.0888   92.9961    1.0127 C.3     1  UNL1        0.0058
     20 C          62.2130   92.1215    2.2249 C.3     1  UNL1        0.0004
     21 C          63.6647   92.0455    2.5949 C.3     1  UNL1        0.0004
     22 C          64.4376   92.8732    1.6113 C.3     1  UNL1        0.0058
     23 C          64.8386   93.9253    0.2542 C.3     1  UNL1        0.0922
     24 N          64.7144   94.7999   -0.9581 N.pl3   1  UNL1       -0.3181
     25 H          65.4555   95.2458   -1.4283 H       1  UNL1        0.1482
     26 C          55.2785   91.1741   -5.6329 C.3     1  UNL1        0.1152
     27 N          55.8848   92.3035   -4.8538 N.am    1  UNL1       -0.2725
     28 C          56.2890   93.5664   -5.5551 C.3     1  UNL1        0.1152
     29 C          56.0868   92.1701   -3.3735 C.2     1  UNL1        0.2525
     30 O          55.6826   90.9073   -2.6722 O.2     1  UNL1       -0.2698
@<TRIPOS>BOND
     1    26    27    1
     2    27    28    1
     3    27    29   am
     4    29    30    2
     5    29     1    1
     6     1     2   ar
     7     2     3    1
     8     2     4   ar
     9     4     5   ar
    10     5     6   ar
    11     6    11    1
    12    11    12   ar
    13    12    13   ar
    14    13    14   ar
    15    14    15   ar
    16    15    16   ar
    17    16    17    1
    18    15    18    1
    19    18    19    1
    20    19    20    1
    21    20    21    1
    22    21    22    1
    23    18    23    1
    24    23    24    1
    25     6     7   ar
    26     7     8    1
    27     7     1   ar
    28    16    11   ar
    29    22    18    1
    30    24    14    1
    31     3     9    1
    32     3    10    1
    33    24    25    1
@<TRIPOS>MOLECULE
*****
 30 33 0 0 0
SMALL
GASTEIGER

@<TRIPOS>ATOM
      1 C          63.8698   83.6871   13.4403 C.ar    1  UNL1        0.0938
      2 C          64.3035   83.8669   14.8650 C.ar    1  UNL1        0.0481
      3 N          64.7132   82.6762   15.6801 N.pl3   1  UNL1       -0.3568
      4 C          64.3275   85.2373   15.4745 C.ar    1  UNL1        0.0144
      5 C          63.9179   86.4279   14.6593 C.ar    1  UNL1        0.0036
      6 C          63.4842   86.2482   13.2347 C.ar    1  UNL1        0.0300
      7 C          63.4602   84.8779   12.6252 C.ar    1  UNL1        0.1457
      8 F          63.0265   84.6982   11.2005 F       1  UNL1       -0.2040
      9 H          64.6974   81.7768   15.2801 H       1  UNL1        0.1424
     10 H          64.9978   82.7942   16.6152 H       1  UNL1        0.1424
     11 C          63.0746   87.4388   12.4195 C.ar    1  UNL1        0.0317
     12 C          63.6407   88.7923   12.7318 C.ar    1  UNL1        0.1011
     13 N          63.2310   89.9830   11.9165 N.ar    1  UNL1       -0.2297
     14 C          62.2552   89.8201   10.7891 C.ar    1  UNL1        0.1253
     15 C          61.6890   88.4667   10.4768 C.ar    1  UNL1        0.0208
     16 C          62.0987   87.2760   11.2920 C.ar    1  UNL1        0.0579
     17 CL         61.5325   85.9225   10.9797 Cl      1  UNL1       -0.0824
     18 C          60.7533   88.6127    9.3136 C.3     1  UNL1        0.0404
     19 C          60.7654   87.1689    9.7202 C.3     1  UNL1        0.0058
     20 C          59.8372   86.4228    8.8083 C.3     1  UNL1        0.0004
     21 C          59.2514   87.4054    7.8380 C.3     1  UNL1        0.0004
     22 C          59.8176   88.7589    8.1503 C.3     1  UNL1        0.0058
     23 C          60.7412   90.0566    8.9069 C.3     1  UNL1        0.0922
     24 N          61.6694   90.8027    9.8189 N.pl3   1  UNL1       -0.3181
     25 H          61.8606   91.7680    9.7863 H       1  UNL1        0.1482
     26 C          62.7161   79.9924   12.5641 C.3     1  UNL1        0.1152
     27 N          62.7402   81.3628   13.1736 N.am    1  UNL1       -0.2725
     28 C          61.6586   81.7792   14.1258 C.3     1  UNL1        0.1152
     29 C          63.8458   82.3168   12.8308 C.2     1  UNL1        0.2525
     30 O          64.9274   81.9004   11.8786 O.2     1  UNL1       -0.2698
@<TRIPOS>BOND
     1    26    27    1
     2    27    28    1
     3    27    29   am
     4    29    30    2
     5    29     1    1
     6     1     2   ar
     7     2     3    1
     8     2     4   ar
     9     4     5   ar
    10     5     6   ar
    11     6    11    1
    12    11    12   ar
    13    12    13   ar
    14    13    14   ar
    15    14    15   ar
    16    15    16   ar
    17    16    17    1
    18    15    18    1
    19    18    19    1
    20    19    20    1
    21    20    21    1
    22    21    22    1
    23    18    23    1
    24    23    24    1
    25     6     7   ar
    26     7     8    1
    27     7     1   ar
    28    16    11   ar
    29    22    18    1
    30    24    14    1
    31     3     9    1
    32     3    10    1
    33    24    25    1
