@<TRIPOS>MOLECULE
*****
 36 39 0 0 0
SMALL
GASTEIGER

@<TRIPOS>ATOM
      1 CA         64.6632   92.0309   12.1900 C.3     2  LEU2        0.1523
      2 C          64.2922   92.3104   10.7638 C.2     2  LEU2        0.2409
      3 O          64.7673   93.5677   10.0978 O.2     2  LEU2       -0.2733
      4 N          63.4461   91.3326   10.0035 N.am    1  UNK1       -0.2970
      5 C          62.9710   90.0753   10.6694 C.3     1  UNK1        0.1494
      6 C          63.3420   89.7959   12.0956 C.2     1  UNK1        0.2444
      7 O          62.8669   88.5385   12.7616 O.2     1  UNK1       -0.2731
      8 N          64.1881   90.7736   12.8559 N.am    2  LEU2       -0.2611
      9 H          63.2026   91.5161    9.0674 H       1  UNK1        0.1499
     10 C          62.1249   89.0976    9.9091 C.3     1  UNK1        0.0356
     11 C          60.7311   89.3390    9.4102 C.3     1  UNK1        0.0285
     12 C          60.2688   88.0973    8.7069 C.ar    1  UNK1       -0.0261
     13 C          58.9820   87.7550    8.0164 C.ar    1  UNK1       -0.0046
     14 C          58.8034   86.4038    7.3901 C.ar    1  UNK1       -0.0003
     15 C          59.9115   85.3949    7.4543 C.ar    1  UNK1       -0.0003
     16 C          61.1983   85.7372    8.1449 C.ar    1  UNK1       -0.0046
     17 C          61.3770   87.0884    8.7712 C.ar    1  UNK1       -0.0261
     18 C          62.5241   87.7066    9.5142 C.3     1  UNK1        0.0285
     19 CB         65.5093   93.0087   12.9503 C.3     2  LEU2        0.0292
     20 CD1        67.6902   93.1078   11.5419 C.3     2  LEU2        0.0001
     21 CG         66.5588   93.8070   12.2354 C.3     2  LEU2        0.0021
     22 CD2        66.4768   95.3047   12.2139 C.3     2  LEU2        0.0001
     23 C          64.5591   90.4941   14.2823 C.3     0  UNK0        0.1811
     24 C          65.6269   91.3067   14.9525 C.ar    0  UNK0        0.0346
     25 C          65.4105   92.3383   16.0198 C.ar    0  UNK0        0.0053
     26 C          66.7486   92.8995   16.4001 C.ar    0  UNK0        0.0135
     27 C          67.7919   92.2148   15.5679 C.ar    0  UNK0        0.0636
     28 BR         69.2692   92.4698   15.6210 Br      0  UNK0       -0.0419
     29 S          67.0987   91.2304   14.6732 S.2     0  UNK0       -0.0824
     30 C          63.8622   89.4019   15.0382 C.2     0  UNK0        0.2454
     31 O          62.5718   89.6866   15.7481 O.2     0  UNK0       -0.2729
     32 N          64.4556   88.0251   15.0843 N.am    0  UNK0       -0.3043
     33 H          65.3025   87.8383   14.6184 H       0  UNK0        0.1494
     34 C          63.7587   86.9329   15.8403 C.3     0  UNK0        0.0717
     35 C          63.0155   87.2516   17.1037 C.3     0  UNK0        0.0213
     36 C          63.8049   85.5222   15.3328 C.3     0  UNK0        0.0213
@<TRIPOS>BOND
     1    20    21    1
     2    21    22    1
     3    21    19    1
     4     1    19    1
     5     1     2    1
     6     2     3    2
     7     2     4   am
     8     4     5    1
     9     5    10    1
    10    10    11    1
    11    11    12    1
    12    12    13   ar
    13    13    14   ar
    14    14    15   ar
    15    15    16   ar
    16    16    17   ar
    17    17    18    1
    18     5     6    1
    19     6     7    2
    20     6     8   am
    21    23     8    1
    22    23    30    1
    23    30    31    2
    24    30    32   am
    25    32    34    1
    26    34    35    1
    27    34    36    1
    28    23    24    1
    29    24    25   ar
    30    25    26   ar
    31    26    27   ar
    32    27    28    1
    33    27    29   ar
    34     8     1    1
    35    29    24   ar
    36    18    10    1
    37    17    12   ar
    38     4     9    1
    39    32    33    1
@<TRIPOS>MOLECULE
*****
 36 39 0 0 0
SMALL
GASTEIGER

@<TRIPOS>ATOM
      1 CA         61.8740   87.1112   10.8816 C.3     2  LEU2        0.1523
      2 C          61.8167   88.5083   10.3388 C.2     2  LEU2        0.2409
      3 O          60.9433   88.8196    9.1596 O.2     2  LEU2       -0.2733
      4 N          62.6329   89.5942   10.9750 N.am    1  UNK1       -0.2970
      5 C          63.5063   89.2829   12.1541 C.3     1  UNK1        0.1494
      6 C          63.5635   87.8858   12.6969 C.2     1  UNK1        0.2444
      7 O          64.4370   87.5745   13.8760 O.2     1  UNK1       -0.2731
      8 N          62.7474   86.7999   12.0607 N.am    2  LEU2       -0.2611
      9 H          62.5953   90.5112   10.6187 H       1  UNK1        0.1499
     10 C          64.3224   90.3688   12.7903 C.3     1  UNK1        0.0356
     11 C          64.7761   91.6349   12.1262 C.3     1  UNK1        0.0285
     12 C          65.5623   92.4278   13.1278 C.ar    1  UNK1       -0.0261
     13 C          66.2529   93.7562   13.0371 C.ar    1  UNK1       -0.0046
     14 C          66.9759   94.3085   14.2297 C.ar    1  UNK1       -0.0003
     15 C          67.0081   93.5324   15.5129 C.ar    1  UNK1       -0.0003
     16 C          66.3174   92.2040   15.6036 C.ar    1  UNK1       -0.0046
     17 C          65.5945   91.6517   14.4110 C.ar    1  UNK1       -0.0261
     18 C          64.8283   90.3792   14.2024 C.3     1  UNK1        0.0285
     19 CB         61.0578   86.0253   10.2454 C.3     2  LEU2        0.0292
     20 CD1        59.8014   86.0897    7.9722 C.3     2  LEU2        0.0001
     21 CG         61.0606   85.8607    8.7545 C.3     2  LEU2        0.0021
     22 CD2        62.3227   85.4671    8.0457 C.3     2  LEU2        0.0001
     23 C          62.8047   85.4027   12.6036 C.3     0  UNK0        0.1811
     24 C          63.1898   84.2645   11.7058 C.ar    0  UNK0        0.0346
     25 C          64.1494   84.3349   10.5551 C.ar    0  UNK0        0.0053
     26 C          64.2357   82.9699    9.9393 C.ar    0  UNK0        0.0135
     27 C          63.3295   82.0558   10.7095 C.ar    0  UNK0        0.0636
     28 BR         63.1084   80.5976   10.4359 Br      0  UNK0       -0.0419
     29 S          62.6831   82.8559   11.8013 S.2     0  UNK0       -0.0824
     30 C          62.4767   85.1439   14.0442 C.2     0  UNK0        0.2454
     31 O          61.3352   84.2391   14.4027 O.2     0  UNK0       -0.2729
     32 N          63.2902   85.7898   15.1263 N.am    0  UNK0       -0.3043
     33 H          64.0394   86.3836   14.8910 H       0  UNK0        0.1494
     34 C          62.9623   85.5309   16.5670 C.3     0  UNK0        0.0717
     35 C          62.8815   84.1223   17.0764 C.3     0  UNK0        0.0213
     36 C          62.7151   86.6806   17.4982 C.3     0  UNK0        0.0213
@<TRIPOS>BOND
     1    20    21    1
     2    21    22    1
     3    21    19    1
     4     1    19    1
     5     1     2    1
     6     2     3    2
     7     2     4   am
     8     4     5    1
     9     5    10    1
    10    10    11    1
    11    11    12    1
    12    12    13   ar
    13    13    14   ar
    14    14    15   ar
    15    15    16   ar
    16    16    17   ar
    17    17    18    1
    18     5     6    1
    19     6     7    2
    20     6     8   am
    21    23     8    1
    22    23    30    1
    23    30    31    2
    24    30    32   am
    25    32    34    1
    26    34    35    1
    27    34    36    1
    28    23    24    1
    29    24    25   ar
    30    25    26   ar
    31    26    27   ar
    32    27    28    1
    33    27    29   ar
    34     8     1    1
    35    29    24   ar
    36    18    10    1
    37    17    12   ar
    38     4     9    1
    39    32    33    1
@<TRIPOS>MOLECULE
*****
 36 39 0 0 0
SMALL
GASTEIGER

@<TRIPOS>ATOM
      1 CA         62.8154   85.9389   12.6891 C.3     2  LEU2        0.1523
      2 C          63.7810   85.9733   13.8365 C.2     2  LEU2        0.2409
      3 O          64.0515   84.7274   14.6267 O.2     2  LEU2       -0.2733
      4 N          64.4762   87.2537   14.1936 N.am    1  UNK1       -0.2970
      5 C          64.2057   88.4996   13.4034 C.3     1  UNK1        0.1494
      6 C          63.2401   88.4652   12.2560 C.2     1  UNK1        0.2444
      7 O          62.9696   89.7112   11.4658 O.2     1  UNK1       -0.2731
      8 N          62.5450   87.1849   11.8989 N.am    2  LEU2       -0.2611
      9 H          65.1100   87.2762   14.9466 H       1  UNK1        0.1499
     10 C          64.9009   89.7799   13.7605 C.3     1  UNK1        0.0356
     11 C          65.6659   90.0453   15.0231 C.3     1  UNK1        0.0285
     12 C          66.1909   91.4491   14.9606 C.ar    1  UNK1       -0.0261
     13 C          67.0132   92.2568   15.9205 C.ar    1  UNK1       -0.0046
     14 C          67.3949   93.6666   15.5791 C.ar    1  UNK1       -0.0003
     15 C          66.9543   94.2688   14.2779 C.ar    1  UNK1       -0.0003
     16 C          66.1320   93.4611   13.3180 C.ar    1  UNK1       -0.0046
     17 C          65.7503   92.0513   13.6594 C.ar    1  UNK1       -0.0261
     18 C          64.9531   91.0196   12.9176 C.3     1  UNK1        0.0285
     19 CB         62.1203   84.6586   12.3320 C.3     2  LEU2        0.0292
     20 CD1        62.4851   82.1191   12.7417 C.3     2  LEU2        0.0001
     21 CG         62.9187   83.4085   12.1096 C.3     2  LEU2        0.0021
     22 CD2        64.1509   83.4476   11.2549 C.3     2  LEU2        0.0001
     23 C          61.5793   87.1505   10.7516 C.3     0  UNK0        0.1811
     24 C          61.9045   86.3566    9.5212 C.ar    0  UNK0        0.0346
     25 C          63.2659   85.8723    9.1185 C.ar    0  UNK0        0.0053
     26 C          63.1280   85.1240    7.8259 C.ar    0  UNK0        0.0135
     27 C          61.6815   85.1459    7.4295 C.ar    0  UNK0        0.0636
     28 BR         61.0943   84.5164    6.2011 Br      0  UNK0       -0.0419
     29 S          60.9253   85.9077    8.4773 S.2     0  UNK0       -0.0824
     30 C          60.2885   87.9101   10.8347 C.2     0  UNK0        0.2454
     31 O          59.2887   87.8140    9.7206 O.2     0  UNK0       -0.2729
     32 N          59.9975   88.7657   12.0319 N.am    0  UNK0       -0.3043
     33 H          60.6537   88.8287   12.7631 H       0  UNK0        0.1494
     34 C          58.7067   89.5252   12.1150 C.3     0  UNK0        0.0717
     35 C          58.6366   90.9409   11.6240 C.3     0  UNK0        0.0213
     36 C          57.4861   88.8692   12.6891 C.3     0  UNK0        0.0213
@<TRIPOS>BOND
     1    20    21    1
     2    21    22    1
     3    21    19    1
     4     1    19    1
     5     1     2    1
     6     2     3    2
     7     2     4   am
     8     4     5    1
     9     5    10    1
    10    10    11    1
    11    11    12    1
    12    12    13   ar
    13    13    14   ar
    14    14    15   ar
    15    15    16   ar
    16    16    17   ar
    17    17    18    1
    18     5     6    1
    19     6     7    2
    20     6     8   am
    21    23     8    1
    22    23    30    1
    23    30    31    2
    24    30    32   am
    25    32    34    1
    26    34    35    1
    27    34    36    1
    28    23    24    1
    29    24    25   ar
    30    25    26   ar
    31    26    27   ar
    32    27    28    1
    33    27    29   ar
    34     8     1    1
    35    29    24   ar
    36    18    10    1
    37    17    12   ar
    38     4     9    1
    39    32    33    1
@<TRIPOS>MOLECULE
*****
 36 39 0 0 0
SMALL
GASTEIGER

@<TRIPOS>ATOM
      1 CA         60.6940   88.4204   10.8226 C.3     2  LEU2        0.1523
      2 C          60.4784   89.8716   11.1348 C.2     2  LEU2        0.2409
      3 O          59.2330   90.5630   10.6647 O.2     2  LEU2       -0.2733
      4 N          61.5083   90.6315   11.9172 N.am    1  UNK1       -0.2970
      5 C          62.7537   89.9401   12.3872 C.3     1  UNK1        0.1494
      6 C          62.9692   88.4890   12.0750 C.2     1  UNK1        0.2444
      7 O          64.2146   87.7975   12.5451 O.2     1  UNK1       -0.2731
      8 N          61.9394   87.7291   11.2927 N.am    2  LEU2       -0.2611
      9 H          61.3668   91.5840   12.1221 H       1  UNK1        0.1499
     10 C          63.7835   90.7000   13.1696 C.3     1  UNK1        0.0356
     11 C          64.8851   91.5398   12.5942 C.3     1  UNK1        0.0285
     12 C          65.6750   92.1123   13.7337 C.ar    1  UNK1       -0.0261
     13 C          66.8736   93.0134   13.7714 C.ar    1  UNK1       -0.0046
     14 C          67.4587   93.4284   15.0887 C.ar    1  UNK1       -0.0003
     15 C          66.8452   92.9424   16.3683 C.ar    1  UNK1       -0.0003
     16 C          65.6467   92.0413   16.3306 C.ar    1  UNK1       -0.0046
     17 C          65.0615   91.6263   15.0133 C.ar    1  UNK1       -0.0261
     18 C          63.8925   90.7534   14.6646 C.3     1  UNK1        0.0285
     19 CB         59.6641   87.6606   10.0402 C.3     2  LEU2        0.0292
     20 CD1        58.6831   86.9799    7.7328 C.3     2  LEU2        0.0001
     21 CG         59.4936   87.9217    8.5731 C.3     2  LEU2        0.0021
     22 CD2        60.1335   89.1249    7.9460 C.3     2  LEU2        0.0001
     23 C          62.1550   86.2778   10.9804 C.3     0  UNK0        0.1811
     24 C          62.3038   85.8311    9.5563 C.ar    0  UNK0        0.0346
     25 C          63.5610   85.8909    8.7402 C.ar    0  UNK0        0.0053
     26 C          63.2556   85.3430    7.3777 C.ar    0  UNK0        0.0135
     27 C          61.8098   84.9445    7.3516 C.ar    0  UNK0        0.0636
     28 BR         61.0803   84.3489    6.1841 Br      0  UNK0       -0.0419
     29 S          61.2215   85.2462    8.6981 S.2     0  UNK0       -0.0824
     30 C          62.2218   85.2733   12.0924 C.2     0  UNK0        0.2454
     31 O          61.6647   85.6119   13.4434 O.2     0  UNK0       -0.2729
     32 N          62.8456   83.9303   11.8535 N.am    0  UNK0       -0.3043
     33 H          63.2112   83.7081   10.9668 H       0  UNK0        0.1494
     34 C          62.9123   82.9258   12.9654 C.3     0  UNK0        0.0717
     35 C          62.0491   81.6998   12.9215 C.3     0  UNK0        0.0213
     36 C          63.8423   83.1472   14.1213 C.3     0  UNK0        0.0213
@<TRIPOS>BOND
     1    20    21    1
     2    21    22    1
     3    21    19    1
     4     1    19    1
     5     1     2    1
     6     2     3    2
     7     2     4   am
     8     4     5    1
     9     5    10    1
    10    10    11    1
    11    11    12    1
    12    12    13   ar
    13    13    14   ar
    14    14    15   ar
    15    15    16   ar
    16    16    17   ar
    17    17    18    1
    18     5     6    1
    19     6     7    2
    20     6     8   am
    21    23     8    1
    22    23    30    1
    23    30    31    2
    24    30    32   am
    25    32    34    1
    26    34    35    1
    27    34    36    1
    28    23    24    1
    29    24    25   ar
    30    25    26   ar
    31    26    27   ar
    32    27    28    1
    33    27    29   ar
    34     8     1    1
    35    29    24   ar
    36    18    10    1
    37    17    12   ar
    38     4     9    1
    39    32    33    1
@<TRIPOS>MOLECULE
*****
 36 39 0 0 0
SMALL
GASTEIGER

@<TRIPOS>ATOM
      1 CA         62.9441   85.6238   14.2155 C.3     2  LEU2        0.1523
      2 C          63.4746   86.3080   15.4404 C.2     2  LEU2        0.2409
      3 O          63.4299   85.6107   16.7677 O.2     2  LEU2       -0.2733
      4 N          64.0499   87.6895   15.3380 N.am    1  UNK1       -0.2970
      5 C          64.0947   88.3868   14.0108 C.3     1  UNK1        0.1494
      6 C          63.5642   87.7027   12.7859 C.2     1  UNK1        0.2444
      7 O          63.6090   88.4000   11.4585 O.2     1  UNK1       -0.2731
      8 N          62.9889   86.3212   12.8882 N.am    2  LEU2       -0.2611
      9 H          64.3981   88.1385   16.1420 H       1  UNK1        0.1499
     10 C          64.6700   89.7683   13.9084 C.3     1  UNK1        0.0356
     11 C          64.5802   90.6748   12.7167 C.3     1  UNK1        0.0285
     12 C          65.2908   91.9526   13.0515 C.ar    1  UNK1       -0.0261
     13 C          65.5245   93.2074   12.2635 C.ar    1  UNK1       -0.0046
     14 C          66.2872   94.3454   12.8742 C.ar    1  UNK1       -0.0003
     15 C          66.8163   94.2287   14.2730 C.ar    1  UNK1       -0.0003
     16 C          66.5826   92.9740   15.0610 C.ar    1  UNK1       -0.0046
     17 C          65.8199   91.8359   14.4503 C.ar    1  UNK1       -0.0261
     18 C          65.4362   90.4860   14.9798 C.3     1  UNK1        0.0285
     19 CB         62.3688   84.2423   14.3178 C.3     2  LEU2        0.0292
     20 CD1        64.7677   83.2526   14.4437 C.3     2  LEU2        0.0001
     21 CG         63.2805   83.0572   14.4373 C.3     2  LEU2        0.0021
     22 CD2        62.7050   81.6766   14.5504 C.3     2  LEU2        0.0001
     23 C          62.4584   85.6370   11.6632 C.3     0  UNK0        0.1811
     24 C          63.0042   84.3009   11.2547 C.ar    0  UNK0        0.0346
     25 C          64.3706   84.0409   10.6931 C.ar    0  UNK0        0.0053
     26 C          64.4902   82.5695   10.4274 C.ar    0  UNK0        0.0135
     27 C          63.1978   81.9201   10.8246 C.ar    0  UNK0        0.0636
     28 BR         62.8796   80.4575   10.7276 Br      0  UNK0       -0.0419
     29 S          62.2794   82.9902   11.3359 S.2     0  UNK0       -0.0824
     30 C          61.3821   86.2890   10.8468 C.2     0  UNK0        0.2454
     31 O          60.2886   87.0593   11.5257 O.2     0  UNK0       -0.2729
     32 N          61.3994   86.1707    9.3516 N.am    0  UNK0       -0.3043
     33 H          62.1171   85.6652    8.9061 H       0  UNK0        0.1494
     34 C          60.3231   86.8227    8.5352 C.3     0  UNK0        0.0717
     35 C          60.0780   88.2975    8.6581 C.3     0  UNK0        0.0213
     36 C          59.4919   86.0000    7.5960 C.3     0  UNK0        0.0213
@<TRIPOS>BOND
     1    20    21    1
     2    21    22    1
     3    21    19    1
     4     1    19    1
     5     1     2    1
     6     2     3    2
     7     2     4   am
     8     4     5    1
     9     5    10    1
    10    10    11    1
    11    11    12    1
    12    12    13   ar
    13    13    14   ar
    14    14    15   ar
    15    15    16   ar
    16    16    17   ar
    17    17    18    1
    18     5     6    1
    19     6     7    2
    20     6     8   am
    21    23     8    1
    22    23    30    1
    23    30    31    2
    24    30    32   am
    25    32    34    1
    26    34    35    1
    27    34    36    1
    28    23    24    1
    29    24    25   ar
    30    25    26   ar
    31    26    27   ar
    32    27    28    1
    33    27    29   ar
    34     8     1    1
    35    29    24   ar
    36    18    10    1
    37    17    12   ar
    38     4     9    1
    39    32    33    1
@<TRIPOS>MOLECULE
*****
 36 39 0 0 0
SMALL
GASTEIGER

@<TRIPOS>ATOM
      1 CA         64.7506   92.0498   12.2285 C.3     2  LEU2        0.1523
      2 C          64.3291   92.3582   10.8224 C.2     2  LEU2        0.2409
      3 O          64.7881   93.6247   10.1625 O.2     2  LEU2       -0.2733
      4 N          63.4486   91.4002   10.0761 N.am    1  UNK1       -0.2970
      5 C          62.9895   90.1338   10.7360 C.3     1  UNK1        0.1494
      6 C          63.4111   89.8253   12.1421 C.2     1  UNK1        0.2444
      7 O          62.9521   88.5589   12.8020 O.2     1  UNK1       -0.2731
      8 N          64.2916   90.7834   12.8883 N.am    2  LEU2       -0.2611
      9 H          63.1719   91.6026    9.1532 H       1  UNK1        0.1499
     10 C          62.1090   89.1757    9.9897 C.3     1  UNK1        0.0356
     11 C          60.7256   89.4602    9.4846 C.3     1  UNK1        0.0285
     12 C          60.2189   88.2253    8.8003 C.ar    1  UNK1       -0.0261
     13 C          58.9212   87.9195    8.1129 C.ar    1  UNK1       -0.0046
     14 C          58.6938   86.5660    7.5077 C.ar    1  UNK1       -0.0003
     15 C          59.7642   85.5183    7.5898 C.ar    1  UNK1       -0.0003
     16 C          61.0619   85.8241    8.2772 C.ar    1  UNK1       -0.0046
     17 C          61.2892   87.1776    8.8824 C.ar    1  UNK1       -0.0261
     18 C          62.4574   87.7650    9.6175 C.3     1  UNK1        0.0285
     19 CB         65.6311   93.0078   12.9748 C.3     2  LEU2        0.0292
     20 CD1        67.7401   93.2344   11.4746 C.3     2  LEU2        0.0001
     21 CG         66.6074   93.8670   12.2274 C.3     2  LEU2        0.0021
     22 CD2        66.4510   95.3588   12.2328 C.3     2  LEU2        0.0001
     23 C          64.7131   90.4749   14.2945 C.3     0  UNK0        0.1811
     24 C          64.2826   89.1923   14.9422 C.ar    0  UNK0        0.0346
     25 C          64.6774   87.8109   14.5110 C.ar    0  UNK0        0.0053
     26 C          64.0205   86.8308   15.4372 C.ar    0  UNK0        0.0135
     27 C          63.2199   87.6064   16.4409 C.ar    0  UNK0        0.0636
     28 BR         62.4010   87.0246   17.5549 Br      0  UNK0       -0.0419
     29 S          63.3819   89.0659   16.1350 S.2     0  UNK0       -0.0824
     30 C          65.5650   91.4491   15.0529 C.2     0  UNK0        0.2454
     31 O          64.9234   92.4737   15.9409 O.2     0  UNK0       -0.2729
     32 N          67.0585   91.3987   14.9233 N.am    0  UNK0       -0.3043
     33 H          67.4796   90.7262   14.3405 H       0  UNK0        0.1494
     34 C          67.9105   92.3728   15.6817 C.3     0  UNK0        0.0717
     35 C          68.8906   91.8757   16.7026 C.3     0  UNK0        0.0213
     36 C          67.7823   93.8441   15.4191 C.3     0  UNK0        0.0213
@<TRIPOS>BOND
     1    20    21    1
     2    21    22    1
     3    21    19    1
     4     1    19    1
     5     1     2    1
     6     2     3    2
     7     2     4   am
     8     4     5    1
     9     5    10    1
    10    10    11    1
    11    11    12    1
    12    12    13   ar
    13    13    14   ar
    14    14    15   ar
    15    15    16   ar
    16    16    17   ar
    17    17    18    1
    18     5     6    1
    19     6     7    2
    20     6     8   am
    21    23     8    1
    22    23    30    1
    23    30    31    2
    24    30    32   am
    25    32    34    1
    26    34    35    1
    27    34    36    1
    28    23    24    1
    29    24    25   ar
    30    25    26   ar
    31    26    27   ar
    32    27    28    1
    33    27    29   ar
    34     8     1    1
    35    29    24   ar
    36    18    10    1
    37    17    12   ar
    38     4     9    1
    39    32    33    1
@<TRIPOS>MOLECULE
*****
 36 39 0 0 0
SMALL
GASTEIGER

@<TRIPOS>ATOM
      1 CA         63.3856   89.9837   14.1776 C.3     2  LEU2        0.1523
      2 C          64.1246   91.1251   14.8108 C.2     2  LEU2        0.2409
      3 O          64.1633   91.2571   16.3046 O.2     2  LEU2       -0.2733
      4 N          64.8250   92.1347   13.9503 N.am    1  UNK1       -0.2970
      5 C          64.7863   92.0027   12.4567 C.3     1  UNK1        0.1494
      6 C          64.0473   90.8613   11.8235 C.2     1  UNK1        0.2444
      7 O          64.0086   90.7293   10.3298 O.2     1  UNK1       -0.2731
      8 N          63.3470   89.8518   12.6840 N.am    2  LEU2       -0.2611
      9 H          65.3100   92.8838   14.3659 H       1  UNK1        0.1499
     10 C          65.4866   93.0122   11.5962 C.3     1  UNK1        0.0356
     11 C          65.6150   94.4787   11.8842 C.3     1  UNK1        0.0285
     12 C          66.3893   95.1054   10.7626 C.ar    1  UNK1       -0.0261
     13 C          66.8207   96.5192   10.5081 C.ar    1  UNK1       -0.0046
     14 C          67.6022   96.8538    9.2723 C.ar    1  UNK1       -0.0003
     15 C          67.9523   95.7746    8.2911 C.ar    1  UNK1       -0.0003
     16 C          67.5209   94.3608    8.5457 C.ar    1  UNK1       -0.0046
     17 C          66.7394   94.0261    9.7815 C.ar    1  UNK1       -0.0261
     18 C          66.1815   92.7325   10.2966 C.3     1  UNK1        0.0285
     19 CB         62.6853   88.9742   15.0381 C.3     2  LEU2        0.0292
     20 CD1        64.6560   87.3490   15.5124 C.3     2  LEU2        0.0001
     21 CG         63.4723   88.1319   15.9979 C.3     2  LEU2        0.0021
     22 CD2        63.0755   88.0726   17.4433 C.3     2  LEU2        0.0001
     23 C          62.6079   88.7103   12.0507 C.3     0  UNK0        0.1811
     24 C          61.4874   88.9824   11.0914 C.ar    0  UNK0        0.0346
     25 C          60.3215   89.8946   11.3333 C.ar    0  UNK0        0.0053
     26 C          59.4497   89.8660   10.1131 C.ar    0  UNK0        0.0135
     27 C          60.0766   88.9360    9.1171 C.ar    0  UNK0        0.0636
     28 BR         59.5386   88.6095    7.7555 Br      0  UNK0       -0.0419
     29 S          61.3360   88.3899    9.7217 S.2     0  UNK0       -0.0824
     30 C          62.9895   87.2968   12.3769 C.2     0  UNK0        0.2454
     31 O          64.2776   87.0135   13.0914 O.2     0  UNK0       -0.2729
     32 N          62.0830   86.1666   11.9885 N.am    0  UNK0       -0.3043
     33 H          61.2376   86.3525   11.5195 H       0  UNK0        0.1494
     34 C          62.4646   84.7531   12.3146 C.3     0  UNK0        0.0717
     35 C          62.8828   83.8173   11.2193 C.3     0  UNK0        0.0213
     36 C          62.4280   84.2752   13.7360 C.3     0  UNK0        0.0213
@<TRIPOS>BOND
     1    20    21    1
     2    21    22    1
     3    21    19    1
     4     1    19    1
     5     1     2    1
     6     2     3    2
     7     2     4   am
     8     4     5    1
     9     5    10    1
    10    10    11    1
    11    11    12    1
    12    12    13   ar
    13    13    14   ar
    14    14    15   ar
    15    15    16   ar
    16    16    17   ar
    17    17    18    1
    18     5     6    1
    19     6     7    2
    20     6     8   am
    21    23     8    1
    22    23    30    1
    23    30    31    2
    24    30    32   am
    25    32    34    1
    26    34    35    1
    27    34    36    1
    28    23    24    1
    29    24    25   ar
    30    25    26   ar
    31    26    27   ar
    32    27    28    1
    33    27    29   ar
    34     8     1    1
    35    29    24   ar
    36    18    10    1
    37    17    12   ar
    38     4     9    1
    39    32    33    1
@<TRIPOS>MOLECULE
*****
 36 39 0 0 0
SMALL
GASTEIGER

@<TRIPOS>ATOM
      1 CA         63.7012   90.0935   14.7849 C.3     2  LEU2        0.1523
      2 C          63.6982   89.0722   15.8835 C.2     2  LEU2        0.2409
      3 O          63.7805   89.5109   17.3156 O.2     2  LEU2       -0.2733
      4 N          63.6129   87.6123   15.5500 N.am    1  UNK1       -0.2970
      5 C          63.5306   87.1736   14.1180 C.3     1  UNK1        0.1494
      6 C          63.5336   88.1949   13.0194 C.2     1  UNK1        0.2444
      7 O          63.4514   87.7562   11.5873 O.2     1  UNK1       -0.2731
      8 N          63.6190   89.6548   13.3529 N.am    2  LEU2       -0.2611
      9 H          63.6109   86.9419   16.2711 H       1  UNK1        0.1499
     10 C          63.4453   85.7136   13.7846 C.3     1  UNK1        0.0356
     11 C          62.9851   85.1324   12.4805 C.3     1  UNK1        0.0285
     12 C          63.0606   83.6381   12.5866 C.ar    1  UNK1       -0.0261
     13 C          62.7333   82.5450   11.6130 C.ar    1  UNK1       -0.0046
     14 C          62.9128   81.1094   12.0091 C.ar    1  UNK1       -0.0003
     15 C          63.4197   80.7670   13.3787 C.ar    1  UNK1       -0.0003
     16 C          63.7470   81.8601   14.3523 C.ar    1  UNK1       -0.0046
     17 C          63.5674   83.2957   13.9562 C.ar    1  UNK1       -0.0261
     18 C          63.8052   84.5784   14.6966 C.3     1  UNK1        0.0285
     19 CB         63.7865   91.5535   15.1184 C.3     2  LEU2        0.0292
     20 CD1        64.5535   92.7007   17.3196 C.3     2  LEU2        0.0001
     21 CG         64.8858   92.0571   16.0061 C.3     2  LEU2        0.0021
     22 CD2        66.3173   91.9170   15.5803 C.3     2  LEU2        0.0001
     23 C          63.6220   90.6762   12.2542 C.3     0  UNK0        0.1811
     24 C          64.8137   91.5663   12.0610 C.ar    0  UNK0        0.0346
     25 C          66.1626   91.3829   12.6909 C.ar    0  UNK0        0.0053
     26 C          67.0483   92.4995   12.2232 C.ar    0  UNK0        0.0135
     27 C          66.2468   93.3730   11.3042 C.ar    0  UNK0        0.0636
     28 BR         66.7398   94.6067   10.6078 Br      0  UNK0       -0.0419
     29 S          64.8657   92.7963   11.2040 S.2     0  UNK0       -0.0824
     30 C          62.4333   90.8072   11.3488 C.2     0  UNK0        0.2454
     31 O          62.5786   91.4711   10.0116 O.2     0  UNK0       -0.2729
     32 N          61.0993   90.2744   11.7806 N.am    0  UNK0       -0.3043
     33 H          61.0039   89.8387   12.6583 H       0  UNK0        0.1494
     34 C          59.9105   90.4055   10.8752 C.3     0  UNK0        0.0717
     35 C          58.7050   91.1755   11.3268 C.3     0  UNK0        0.0213
     36 C          59.9273   89.7666    9.5182 C.3     0  UNK0        0.0213
@<TRIPOS>BOND
     1    20    21    1
     2    21    22    1
     3    21    19    1
     4     1    19    1
     5     1     2    1
     6     2     3    2
     7     2     4   am
     8     4     5    1
     9     5    10    1
    10    10    11    1
    11    11    12    1
    12    12    13   ar
    13    13    14   ar
    14    14    15   ar
    15    15    16   ar
    16    16    17   ar
    17    17    18    1
    18     5     6    1
    19     6     7    2
    20     6     8   am
    21    23     8    1
    22    23    30    1
    23    30    31    2
    24    30    32   am
    25    32    34    1
    26    34    35    1
    27    34    36    1
    28    23    24    1
    29    24    25   ar
    30    25    26   ar
    31    26    27   ar
    32    27    28    1
    33    27    29   ar
    34     8     1    1
    35    29    24   ar
    36    18    10    1
    37    17    12   ar
    38     4     9    1
    39    32    33    1
@<TRIPOS>MOLECULE
*****
 36 39 0 0 0
SMALL
GASTEIGER

@<TRIPOS>ATOM
      1 CA         63.3424   88.9754   13.7698 C.3     2  LEU2        0.1523
      2 C          63.6885   87.9363   14.7947 C.2     2  LEU2        0.2409
      3 O          64.1106   88.3532   16.1725 O.2     2  LEU2       -0.2733
      4 N          63.6126   86.4804   14.4419 N.am    1  UNK1       -0.2970
      5 C          63.1905   86.0636   13.0642 C.3     1  UNK1        0.1494
      6 C          62.8445   87.1027   12.0393 C.2     1  UNK1        0.2444
      7 O          62.4224   86.6859   10.6616 O.2     1  UNK1       -0.2731
      8 N          62.9204   88.5586   12.3921 N.am    2  LEU2       -0.2611
      9 H          63.8397   85.7984   15.1146 H       1  UNK1        0.1499
     10 C          63.1146   84.6076   12.7114 C.3     1  UNK1        0.0356
     11 C          62.7399   83.4931   13.6428 C.3     1  UNK1        0.0285
     12 C          62.7937   82.2072   12.8723 C.ar    1  UNK1       -0.0261
     13 C          62.5239   80.7865   13.2706 C.ar    1  UNK1       -0.0046
     14 C          62.6621   79.6855   12.2613 C.ar    1  UNK1       -0.0003
     15 C          63.0701   80.0053   10.8537 C.ar    1  UNK1       -0.0003
     16 C          63.3399   81.4261   10.4554 C.ar    1  UNK1       -0.0046
     17 C          63.2017   82.5270   11.4647 C.ar    1  UNK1       -0.0261
     18 C          63.4000   84.0105   11.3653 C.3     1  UNK1        0.0285
     19 CB         63.4184   90.4314   14.1226 C.3     2  LEU2        0.0292
     20 CD1        64.0180   91.5517   16.3888 C.3     2  LEU2        0.0001
     21 CG         64.4479   90.9132   15.1013 C.3     2  LEU2        0.0021
     22 CD2        65.9075   90.7566   14.7926 C.3     2  LEU2        0.0001
     23 C          62.5743   89.5977   11.3671 C.3     0  UNK0        0.1811
     24 C          63.4899   90.7646   11.1434 C.ar    0  UNK0        0.0346
     25 C          63.4593   91.6967    9.9685 C.ar    0  UNK0        0.0053
     26 C          64.5473   92.7124   10.1542 C.ar    0  UNK0        0.0135
     27 C          65.2503   92.4081   11.4438 C.ar    0  UNK0        0.0636
     28 BR         66.4043   93.1733   12.0208 Br      0  UNK0       -0.0419
     29 S          64.5968   91.2043   12.0552 S.2     0  UNK0       -0.0824
     30 C          61.3127   89.4699   10.5660 C.2     0  UNK0        0.2454
     31 O          60.0485   90.1167   11.0494 O.2     0  UNK0       -0.2729
     32 N          61.3151   88.6953    9.2815 N.am    0  UNK0       -0.3043
     33 H          62.1448   88.2708    8.9643 H       0  UNK0        0.1494
     34 C          60.0534   88.5675    8.4804 C.3     0  UNK0        0.0717
     35 C          59.6741   89.6398    7.5024 C.3     0  UNK0        0.0213
     36 C          59.1711   87.3674    8.6572 C.3     0  UNK0        0.0213
@<TRIPOS>BOND
     1    20    21    1
     2    21    22    1
     3    21    19    1
     4     1    19    1
     5     1     2    1
     6     2     3    2
     7     2     4   am
     8     4     5    1
     9     5    10    1
    10    10    11    1
    11    11    12    1
    12    12    13   ar
    13    13    14   ar
    14    14    15   ar
    15    15    16   ar
    16    16    17   ar
    17    17    18    1
    18     5     6    1
    19     6     7    2
    20     6     8   am
    21    23     8    1
    22    23    30    1
    23    30    31    2
    24    30    32   am
    25    32    34    1
    26    34    35    1
    27    34    36    1
    28    23    24    1
    29    24    25   ar
    30    25    26   ar
    31    26    27   ar
    32    27    28    1
    33    27    29   ar
    34     8     1    1
    35    29    24   ar
    36    18    10    1
    37    17    12   ar
    38     4     9    1
    39    32    33    1
