@<TRIPOS>MOLECULE
*****
 24 25 0 0 0
SMALL
GASTEIGER

@<TRIPOS>ATOM
      1 C          62.0451   86.6620   11.0122 C.3     1  UNL1        0.1169
      2 C          61.9209   86.0772    9.6366 C.ar    1  UNL1       -0.0003
      3 C          63.0855   85.3628    9.0174 C.ar    1  UNL1       -0.0015
      4 C          62.9613   84.7779    7.6417 C.ar    1  UNL1        0.0111
      5 C          61.6726   84.9074    6.8852 C.ar    1  UNL1        0.0577
      6 CL         61.5484   84.3226    5.5095 Cl      1  UNL1       -0.0822
      7 C          60.5080   85.6218    7.5043 C.ar    1  UNL1        0.0111
      8 C          60.6321   86.2067    8.8800 C.ar    1  UNL1       -0.0015
      9 C          62.5063   88.0788   11.1861 C.ar    1  UNL1       -0.0003
     10 C          62.2859   89.0791   10.0903 C.ar    1  UNL1       -0.0024
     11 C          62.7472   90.4957   10.2643 C.ar    1  UNL1       -0.0003
     12 C          63.4289   90.9121   11.5339 C.ar    1  UNL1       -0.0000
     13 C          63.6493   89.9117   12.6297 C.ar    1  UNL1       -0.0003
     14 C          63.1880   88.4951   12.4557 C.ar    1  UNL1       -0.0024
     15 C          62.6985   84.8329   12.7377 C.2     1  UNL1        0.2430
     16 O          64.0262   84.6673   12.0595 O.2     1  UNL1       -0.2732
     17 N          61.7080   85.8302   12.2141 N.am    1  UNL1       -0.2972
     18 H          60.8366   85.9388   12.6592 H       1  UNL1        0.1500
     19 C          62.3614   84.0011   13.9395 C.3     1  UNL1        0.1756
     20 C          62.6793   86.0579   17.3187 C.3     1  UNL1        0.0946
     21 C          63.0439   85.3928   16.0246 C.2     1  UNL1        0.2233
     22 O          64.4557   85.4543   15.5214 O.2     1  UNL1       -0.2751
     23 N          61.9967   84.6662   15.2337 N.am    1  UNL1       -0.2966
     24 H          61.0701   84.6258   15.5639 H       1  UNL1        0.1499
@<TRIPOS>BOND
     1    20    21    1
     2    21    22    2
     3    21    23   am
     4    23    19    1
     5    19    15    1
     6    15    16    2
     7    15    17   am
     8    17     1    1
     9     1     9    1
    10     9    10   ar
    11    10    11   ar
    12    11    12   ar
    13    12    13   ar
    14    13    14   ar
    15     1     2    1
    16     2     3   ar
    17     3     4   ar
    18     4     5   ar
    19     5     6    1
    20     5     7   ar
    21     7     8   ar
    22    14     9   ar
    23     8     2   ar
    24    23    24    1
    25    17    18    1
@<TRIPOS>MOLECULE
*****
 24 25 0 0 0
SMALL
GASTEIGER

@<TRIPOS>ATOM
      1 C          62.0321   86.6743   11.0352 C.3     1  UNL1        0.1169
      2 C          62.5763   88.0563   11.2450 C.ar    1  UNL1       -0.0003
      3 C          63.2562   88.4067   12.5353 C.ar    1  UNL1       -0.0015
      4 C          63.8004   89.7887   12.7451 C.ar    1  UNL1        0.0111
      5 C          63.6645   90.8203   11.6646 C.ar    1  UNL1        0.0577
      6 CL         64.2087   92.2022   11.8745 Cl      1  UNL1       -0.0822
      7 C          62.9846   90.4698   10.3744 C.ar    1  UNL1        0.0111
      8 C          62.4404   89.0879   10.1645 C.ar    1  UNL1       -0.0015
      9 C          61.8181   86.1557    9.6440 C.ar    1  UNL1       -0.0003
     10 C          62.9347   85.4610    8.9225 C.ar    1  UNL1       -0.0024
     11 C          62.7207   84.9425    7.5314 C.ar    1  UNL1       -0.0003
     12 C          61.3900   85.1186    6.8618 C.ar    1  UNL1       -0.0000
     13 C          60.2734   85.8133    7.5833 C.ar    1  UNL1       -0.0003
     14 C          60.4875   86.3319    8.9744 C.ar    1  UNL1       -0.0024
     15 C          62.6920   84.7941   12.7023 C.2     1  UNL1        0.2430
     16 O          64.0122   84.6407   12.0068 O.2     1  UNL1       -0.2732
     17 N          61.7020   85.8109   12.2165 N.am    1  UNL1       -0.2972
     18 H          60.8356   85.9115   12.6730 H       1  UNL1        0.1500
     19 C          62.3619   83.9307   13.8836 C.3     1  UNL1        0.1756
     20 C          62.7046   85.9514   17.2820 C.3     1  UNL1        0.0946
     21 C          63.0537   85.3210   15.9665 C.2     1  UNL1        0.2233
     22 O          64.4440   85.4503   15.4183 O.2     1  UNL1       -0.2751
     23 N          62.0127   84.5611   15.1992 N.am    1  UNL1       -0.2966
     24 H          61.1002   84.4762   15.5590 H       1  UNL1        0.1499
@<TRIPOS>BOND
     1    20    21    1
     2    21    22    2
     3    21    23   am
     4    23    19    1
     5    19    15    1
     6    15    16    2
     7    15    17   am
     8    17     1    1
     9     1     9    1
    10     9    10   ar
    11    10    11   ar
    12    11    12   ar
    13    12    13   ar
    14    13    14   ar
    15     1     2    1
    16     2     3   ar
    17     3     4   ar
    18     4     5   ar
    19     5     6    1
    20     5     7   ar
    21     7     8   ar
    22    14     9   ar
    23     8     2   ar
    24    23    24    1
    25    17    18    1
@<TRIPOS>MOLECULE
*****
 24 25 0 0 0
SMALL
GASTEIGER

@<TRIPOS>ATOM
      1 C          62.7394   85.3033   11.7680 C.3     1  UNL1        0.1169
      2 C          63.2199   86.4978   12.5376 C.ar    1  UNL1       -0.0003
      3 C          63.9273   86.3114   13.8471 C.ar    1  UNL1       -0.0015
      4 C          64.4078   87.5060   14.6166 C.ar    1  UNL1        0.0111
      5 C          64.1811   88.8868   14.0766 C.ar    1  UNL1        0.0577
      6 CL         64.6616   90.0813   14.8461 Cl      1  UNL1       -0.0822
      7 C          63.4737   89.0732   12.7671 C.ar    1  UNL1        0.0111
      8 C          62.9932   87.8788   11.9975 C.ar    1  UNL1       -0.0015
      9 C          62.2595   85.4642   10.3559 C.ar    1  UNL1       -0.0003
     10 C          60.9266   86.0961   10.0842 C.ar    1  UNL1       -0.0024
     11 C          60.4469   86.2570    8.6721 C.ar    1  UNL1       -0.0003
     12 C          61.3000   85.7860    7.5319 C.ar    1  UNL1       -0.0000
     13 C          62.6330   85.1540    7.8036 C.ar    1  UNL1       -0.0003
     14 C          63.1127   84.9931    9.2157 C.ar    1  UNL1       -0.0024
     15 C          63.8294   82.9677   12.0951 C.2     1  UNL1        0.2430
     16 O          64.9210   83.3430   11.1372 O.2     1  UNL1       -0.2732
     17 N          62.7386   83.9479   12.4105 N.am    1  UNL1       -0.2972
     18 H          62.0222   83.7015   13.0393 H       1  UNL1        0.1500
     19 C          63.8286   81.6123   12.7376 C.3     1  UNL1        0.1756
     20 C          60.2815   80.5237   14.1459 C.3     1  UNL1        0.0946
     21 C          61.5701   81.2724   13.9761 C.2     1  UNL1        0.2233
     22 O          61.8890   82.4302   14.8751 O.2     1  UNL1       -0.2751
     23 N          62.5400   80.8635   12.9074 N.am    1  UNL1       -0.2966
     24 H          62.3307   80.1037   12.3174 H       1  UNL1        0.1499
@<TRIPOS>BOND
     1    20    21    1
     2    21    22    2
     3    21    23   am
     4    23    19    1
     5    19    15    1
     6    15    16    2
     7    15    17   am
     8    17     1    1
     9     1     9    1
    10     9    10   ar
    11    10    11   ar
    12    11    12   ar
    13    12    13   ar
    14    13    14   ar
    15     1     2    1
    16     2     3   ar
    17     3     4   ar
    18     4     5   ar
    19     5     6    1
    20     5     7   ar
    21     7     8   ar
    22    14     9   ar
    23     8     2   ar
    24    23    24    1
    25    17    18    1
@<TRIPOS>MOLECULE
*****
 24 25 0 0 0
SMALL
GASTEIGER

@<TRIPOS>ATOM
      1 C          62.4291   86.5997   10.6624 C.3     1  UNL1        0.1169
      2 C          62.7534   85.6399   11.7685 C.ar    1  UNL1       -0.0003
      3 C          62.4471   84.1802   11.6088 C.ar    1  UNL1       -0.0015
      4 C          62.7715   83.2204   12.7150 C.ar    1  UNL1        0.0111
      5 C          63.4022   83.7203   13.9808 C.ar    1  UNL1        0.0577
      6 CL         63.7266   82.7605   15.0869 Cl      1  UNL1       -0.0822
      7 C          63.7086   85.1800   14.1405 C.ar    1  UNL1        0.0111
      8 C          63.3842   86.1397   13.0344 C.ar    1  UNL1       -0.0015
      9 C          62.0103   86.0814    9.3184 C.ar    1  UNL1       -0.0003
     10 C          60.6028   86.2847    8.8415 C.ar    1  UNL1       -0.0024
     11 C          60.1841   85.7665    7.4976 C.ar    1  UNL1       -0.0003
     12 C          61.1729   85.0450    6.6306 C.ar    1  UNL1       -0.0000
     13 C          62.5804   84.8417    7.1076 C.ar    1  UNL1       -0.0003
     14 C          62.9991   85.3599    8.4515 C.ar    1  UNL1       -0.0024
     15 C          61.3432   88.8267   11.4442 C.2     1  UNL1        0.2430
     16 O          60.0685   88.0976   11.7505 O.2     1  UNL1       -0.2732
     17 N          62.5234   88.0777   10.9001 N.am    1  UNL1       -0.2972
     18 H          63.3600   88.5562   10.6991 H       1  UNL1        0.1500
     19 C          61.4376   90.3047   11.6820 C.3     1  UNL1        0.1756
     20 C          64.6927   91.3325   13.7062 C.3     1  UNL1        0.0946
     21 C          63.3700   90.7098   13.3706 C.2     1  UNL1        0.2233
     22 O          62.6569   89.8696   14.3882 O.2     1  UNL1       -0.2751
     23 N          62.7604   90.9274   12.0175 N.am    1  UNL1       -0.2966
     24 H          63.2284   91.4789   11.3496 H       1  UNL1        0.1499
@<TRIPOS>BOND
     1    20    21    1
     2    21    22    2
     3    21    23   am
     4    23    19    1
     5    19    15    1
     6    15    16    2
     7    15    17   am
     8    17     1    1
     9     1     9    1
    10     9    10   ar
    11    10    11   ar
    12    11    12   ar
    13    12    13   ar
    14    13    14   ar
    15     1     2    1
    16     2     3   ar
    17     3     4   ar
    18     4     5   ar
    19     5     6    1
    20     5     7   ar
    21     7     8   ar
    22    14     9   ar
    23     8     2   ar
    24    23    24    1
    25    17    18    1
@<TRIPOS>MOLECULE
*****
 24 25 0 0 0
SMALL
GASTEIGER

@<TRIPOS>ATOM
      1 C          62.0750   86.5898   11.0629 C.3     1  UNL1        0.1169
      2 C          61.9438   86.0340    9.6759 C.ar    1  UNL1       -0.0003
      3 C          63.0999   85.3184    9.0422 C.ar    1  UNL1       -0.0015
      4 C          62.9686   84.7625    7.6552 C.ar    1  UNL1        0.0111
      5 C          61.6814   84.9222    6.9019 C.ar    1  UNL1        0.0577
      6 CL         61.5502   84.3663    5.5149 Cl      1  UNL1       -0.0822
      7 C          60.5253   85.6377    7.5356 C.ar    1  UNL1        0.0111
      8 C          60.6565   86.1936    8.9226 C.ar    1  UNL1       -0.0015
      9 C          62.5355   88.0032   11.2640 C.ar    1  UNL1       -0.0003
     10 C          62.3129   89.0247   10.1884 C.ar    1  UNL1       -0.0024
     11 C          62.7734   90.4381   10.3896 C.ar    1  UNL1       -0.0003
     12 C          63.4563   90.8299   11.6663 C.ar    1  UNL1       -0.0000
     13 C          63.6788   89.8084   12.7419 C.ar    1  UNL1       -0.0003
     14 C          63.2184   88.3950   12.5408 C.ar    1  UNL1       -0.0024
     15 C          62.7467   84.7366   12.7553 C.2     1  UNL1        0.2430
     16 O          64.0769   84.5983   12.0760 O.2     1  UNL1       -0.2732
     17 N          61.7458   85.7324   12.2488 N.am    1  UNL1       -0.2972
     18 H          60.8728   85.8232   12.6947 H       1  UNL1        0.1500
     19 C          62.4175   83.8792   13.9413 C.3     1  UNL1        0.1756
     20 C          62.0968   79.9370   13.6155 C.3     1  UNL1        0.0946
     21 C          62.6926   81.2987   13.8169 C.2     1  UNL1        0.2233
     22 O          64.1597   81.4418   14.0953 O.2     1  UNL1       -0.2751
     23 N          61.8215   82.5174   13.7399 N.am    1  UNL1       -0.2966
     24 H          60.8587   82.4235   13.5571 H       1  UNL1        0.1499
@<TRIPOS>BOND
     1    20    21    1
     2    21    22    2
     3    21    23   am
     4    23    19    1
     5    19    15    1
     6    15    16    2
     7    15    17   am
     8    17     1    1
     9     1     9    1
    10     9    10   ar
    11    10    11   ar
    12    11    12   ar
    13    12    13   ar
    14    13    14   ar
    15     1     2    1
    16     2     3   ar
    17     3     4   ar
    18     4     5   ar
    19     5     6    1
    20     5     7   ar
    21     7     8   ar
    22    14     9   ar
    23     8     2   ar
    24    23    24    1
    25    17    18    1
@<TRIPOS>MOLECULE
*****
 24 25 0 0 0
SMALL
GASTEIGER

@<TRIPOS>ATOM
      1 C          62.0959   86.5765   11.1578 C.3     1  UNL1        0.1169
      2 C          62.6264   87.9576   11.4045 C.ar    1  UNL1       -0.0003
      3 C          62.4368   89.0294   10.3723 C.ar    1  UNL1       -0.0015
      4 C          62.9674   90.4106   10.6191 C.ar    1  UNL1        0.0111
      5 C          63.6875   90.7200   11.8981 C.ar    1  UNL1        0.0577
      6 CL         64.2180   92.1011   12.1448 Cl      1  UNL1       -0.0822
      7 C          63.8770   89.6482   12.9302 C.ar    1  UNL1        0.0111
      8 C          63.3465   88.2671   12.6835 C.ar    1  UNL1       -0.0015
      9 C          61.8663   86.1009    9.7537 C.ar    1  UNL1       -0.0003
     10 C          62.9622   85.3938    9.0128 C.ar    1  UNL1       -0.0024
     11 C          62.7326   84.9182    7.6089 C.ar    1  UNL1       -0.0003
     12 C          61.4072   85.1499    6.9458 C.ar    1  UNL1       -0.0000
     13 C          60.3114   85.8570    7.6867 C.ar    1  UNL1       -0.0003
     14 C          60.5409   86.3326    9.0907 C.ar    1  UNL1       -0.0024
     15 C          62.8100   84.6604   12.7605 C.2     1  UNL1        0.2430
     16 O          64.1263   84.5556   12.0487 O.2     1  UNL1       -0.2732
     17 N          61.7948   85.6708   12.3150 N.am    1  UNL1       -0.2972
     18 H          60.9310   85.7396   12.7821 H       1  UNL1        0.1500
     19 C          62.5090   83.7548   13.9177 C.3     1  UNL1        0.1756
     20 C          62.3400   79.8861   13.0490 C.3     1  UNL1        0.0946
     21 C          62.8870   81.2609   13.2951 C.2     1  UNL1        0.2233
     22 O          64.3594   81.5167   13.1648 O.2     1  UNL1       -0.2751
     23 N          61.9618   82.3799   13.6716 N.am    1  UNL1       -0.2966
     24 H          60.9955   82.2121   13.7571 H       1  UNL1        0.1499
@<TRIPOS>BOND
     1    20    21    1
     2    21    22    2
     3    21    23   am
     4    23    19    1
     5    19    15    1
     6    15    16    2
     7    15    17   am
     8    17     1    1
     9     1     9    1
    10     9    10   ar
    11    10    11   ar
    12    11    12   ar
    13    12    13   ar
    14    13    14   ar
    15     1     2    1
    16     2     3   ar
    17     3     4   ar
    18     4     5   ar
    19     5     6    1
    20     5     7   ar
    21     7     8   ar
    22    14     9   ar
    23     8     2   ar
    24    23    24    1
    25    17    18    1
@<TRIPOS>MOLECULE
*****
 24 25 0 0 0
SMALL
GASTEIGER

@<TRIPOS>ATOM
      1 C          63.0630   85.1627   12.4033 C.3     1  UNL1        0.1169
      2 C          62.3850   86.1717   11.5246 C.ar    1  UNL1       -0.0003
      3 C          61.3936   85.7219   10.4927 C.ar    1  UNL1       -0.0015
      4 C          60.7156   86.7310    9.6140 C.ar    1  UNL1        0.0111
      5 C          61.0292   88.1898    9.7670 C.ar    1  UNL1        0.0577
      6 CL         60.3512   89.1988    8.8883 Cl      1  UNL1       -0.0822
      7 C          62.0206   88.6396   10.7989 C.ar    1  UNL1        0.0111
      8 C          62.6986   87.6306   11.6776 C.ar    1  UNL1       -0.0015
      9 C          63.1264   83.7241   11.9829 C.ar    1  UNL1       -0.0003
     10 C          62.4849   82.6660   12.8307 C.ar    1  UNL1       -0.0024
     11 C          62.5483   81.2276   12.4102 C.ar    1  UNL1       -0.0003
     12 C          63.2532   80.8473   11.1420 C.ar    1  UNL1       -0.0000
     13 C          63.8947   81.9054   10.2942 C.ar    1  UNL1       -0.0003
     14 C          63.8313   83.3438   10.7146 C.ar    1  UNL1       -0.0024
     15 C          62.9320   85.3892   14.9882 C.2     1  UNL1        0.2430
     16 O          61.5718   84.7569   14.9747 O.2     1  UNL1       -0.2732
     17 N          63.6775   85.5921   13.7025 N.am    1  UNL1       -0.2972
     18 H          64.5703   86.0071   13.7114 H       1  UNL1        0.1500
     19 C          63.5465   85.8187   16.2874 C.3     1  UNL1        0.1756
     20 C          63.1384   89.7446   16.7005 C.3     1  UNL1        0.0946
     21 C          63.4868   88.4101   16.1109 C.2     1  UNL1        0.2233
     22 O          64.1240   88.3324   14.7551 O.2     1  UNL1       -0.2751
     23 N          63.1981   87.1532   16.8770 N.am    1  UNL1       -0.2966
     24 H          62.7799   87.2042   17.7668 H       1  UNL1        0.1499
@<TRIPOS>BOND
     1    20    21    1
     2    21    22    2
     3    21    23   am
     4    23    19    1
     5    19    15    1
     6    15    16    2
     7    15    17   am
     8    17     1    1
     9     1     9    1
    10     9    10   ar
    11    10    11   ar
    12    11    12   ar
    13    12    13   ar
    14    13    14   ar
    15     1     2    1
    16     2     3   ar
    17     3     4   ar
    18     4     5   ar
    19     5     6    1
    20     5     7   ar
    21     7     8   ar
    22    14     9   ar
    23     8     2   ar
    24    23    24    1
    25    17    18    1
@<TRIPOS>MOLECULE
*****
 24 25 0 0 0
SMALL
GASTEIGER

@<TRIPOS>ATOM
      1 C          63.1388   84.0866   11.9623 C.3     1  UNL1        0.1169
      2 C          62.4838   84.9906   10.9604 C.ar    1  UNL1       -0.0003
      3 C          61.4287   85.9607   11.4026 C.ar    1  UNL1       -0.0015
      4 C          60.7737   86.8647   10.4006 C.ar    1  UNL1        0.0111
      5 C          61.1740   86.7986    8.9565 C.ar    1  UNL1        0.0577
      6 CL         60.5191   87.7026    7.9546 Cl      1  UNL1       -0.0822
      7 C          62.2292   85.8285    8.5143 C.ar    1  UNL1        0.0111
      8 C          62.8841   84.9245    9.5162 C.ar    1  UNL1       -0.0015
      9 C          63.0032   82.5984   11.8311 C.ar    1  UNL1       -0.0003
     10 C          63.3399   81.9262   10.5331 C.ar    1  UNL1       -0.0024
     11 C          63.2043   80.4381   10.4020 C.ar    1  UNL1       -0.0003
     12 C          62.7320   79.6223   11.5687 C.ar    1  UNL1       -0.0000
     13 C          62.3952   80.2946   12.8667 C.ar    1  UNL1       -0.0003
     14 C          62.5308   81.7826   12.9978 C.ar    1  UNL1       -0.0024
     15 C          63.2702   84.9197   14.4196 C.2     1  UNL1        0.2430
     16 O          61.8206   84.5848   14.6107 O.2     1  UNL1       -0.2732
     17 N          63.9293   84.6706   13.0954 N.am    1  UNL1       -0.2972
     18 H          64.8807   84.8904   12.9700 H       1  UNL1        0.1500
     19 C          64.0607   85.5038   15.5527 C.3     1  UNL1        0.1756
     20 C          63.0287   89.0898   16.9038 C.3     1  UNL1        0.0946
     21 C          63.0286   87.6074   16.6751 C.2     1  UNL1        0.2233
     22 O          61.9964   86.7459   17.3403 O.2     1  UNL1       -0.2751
     23 N          64.0608   86.9863   15.7814 N.am    1  UNL1       -0.2966
     24 H          64.7383   87.5516   15.3448 H       1  UNL1        0.1499
@<TRIPOS>BOND
     1    20    21    1
     2    21    22    2
     3    21    23   am
     4    23    19    1
     5    19    15    1
     6    15    16    2
     7    15    17   am
     8    17     1    1
     9     1     9    1
    10     9    10   ar
    11    10    11   ar
    12    11    12   ar
    13    12    13   ar
    14    13    14   ar
    15     1     2    1
    16     2     3   ar
    17     3     4   ar
    18     4     5   ar
    19     5     6    1
    20     5     7   ar
    21     7     8   ar
    22    14     9   ar
    23     8     2   ar
    24    23    24    1
    25    17    18    1
@<TRIPOS>MOLECULE
*****
 24 25 0 0 0
SMALL
GASTEIGER

@<TRIPOS>ATOM
      1 C          61.4939   87.2954   10.5528 C.3     1  UNL1        0.1169
      2 C          62.2117   85.9783   10.5574 C.ar    1  UNL1       -0.0003
      3 C          62.3066   85.1803   11.8239 C.ar    1  UNL1       -0.0015
      4 C          63.0245   83.8631   11.8284 C.ar    1  UNL1        0.0111
      5 C          63.6473   83.3441   10.5665 C.ar    1  UNL1        0.0577
      6 CL         64.3652   82.0271   10.5710 Cl      1  UNL1       -0.0822
      7 C          63.5524   84.1422    9.2999 C.ar    1  UNL1        0.0111
      8 C          62.8346   85.4592    9.2954 C.ar    1  UNL1       -0.0015
      9 C          60.6165   87.6674    9.3944 C.ar    1  UNL1       -0.0003
     10 C          59.8393   86.6075    8.6715 C.ar    1  UNL1       -0.0024
     11 C          58.9621   86.9796    7.5131 C.ar    1  UNL1       -0.0003
     12 C          58.8619   88.4115    7.0776 C.ar    1  UNL1       -0.0000
     13 C          59.6391   89.4713    7.8005 C.ar    1  UNL1       -0.0003
     14 C          60.5164   89.0993    8.9589 C.ar    1  UNL1       -0.0024
     15 C          62.5393   89.4435   11.5738 C.2     1  UNL1        0.2430
     16 O          63.2659   89.7015   10.2871 O.2     1  UNL1       -0.2732
     17 N          61.6533   88.2405   11.7067 N.am    1  UNL1       -0.2972
     18 H          61.1765   88.0712   12.5512 H       1  UNL1        0.1500
     19 C          62.6988   90.3886   12.7277 C.3     1  UNL1        0.1756
     20 C          63.1853   89.4216   16.5459 C.3     1  UNL1        0.0946
     21 C          63.4875   89.8832   15.1510 C.2     1  UNL1        0.2233
     22 O          64.8808   90.3010   14.7847 O.2     1  UNL1       -0.2751
     23 N          62.3965   89.9270   14.1226 N.am    1  UNL1       -0.2966
     24 H          61.4820   89.6527   14.3630 H       1  UNL1        0.1499
@<TRIPOS>BOND
     1    20    21    1
     2    21    22    2
     3    21    23   am
     4    23    19    1
     5    19    15    1
     6    15    16    2
     7    15    17   am
     8    17     1    1
     9     1     9    1
    10     9    10   ar
    11    10    11   ar
    12    11    12   ar
    13    12    13   ar
    14    13    14   ar
    15     1     2    1
    16     2     3   ar
    17     3     4   ar
    18     4     5   ar
    19     5     6    1
    20     5     7   ar
    21     7     8   ar
    22    14     9   ar
    23     8     2   ar
    24    23    24    1
    25    17    18    1
