@<TRIPOS>MOLECULE
*****
 37 40 0 0 0
SMALL
GASTEIGER

@<TRIPOS>ATOM
      1 N          63.0570   90.9675   11.7001 N.am    1  UNL1       -0.2438
      2 C          63.5788   91.5973   10.4426 C.3     1  UNL1        0.1009
      3 C          64.7815   92.4921   10.4951 C.3     1  UNL1        0.0662
      4 C          65.4625   92.7572   11.8051 C.3     1  UNL1        0.1600
      5 O          64.9408   92.1275   13.0625 O.3     1  UNL1       -0.4374
      6 C          63.7380   91.2326   13.0100 C.2     1  UNL1        0.4051
      7 O          63.2163   90.6029   14.2675 O.2     1  UNL1       -0.2262
      8 C          66.3247   93.5780   10.8925 C.ar    1  UNL1        0.0138
      9 C          66.2883   95.0754   10.9721 C.ar    1  UNL1       -0.0010
     10 C          67.1506   95.8963   10.0595 C.ar    1  UNL1       -0.0002
     11 C          68.0491   95.2195    9.0672 C.ar    1  UNL1       -0.0000
     12 C          68.0855   93.7221    8.9875 C.ar    1  UNL1       -0.0002
     13 C          67.2233   92.9013    9.9001 C.ar    1  UNL1       -0.0010
     14 C          61.8543   90.0727   11.6476 C.3     1  UNL1        0.1011
     15 C          60.4821   90.6668   11.5291 C.3     1  UNL1        0.0265
     16 C          62.3630   85.6059   11.8452 C.ar    1  UNL1        0.0014
     17 C          61.2641   86.1996   11.0145 C.ar    1  UNL1       -0.0002
     18 C          61.0946   87.6885   10.9486 C.ar    1  UNL1       -0.0027
     19 C          62.0239   88.5838   11.7135 C.ar    1  UNL1       -0.0042
     20 C          63.1227   87.9901   12.5442 C.ar    1  UNL1       -0.0027
     21 C          63.2923   86.5012   12.6100 C.ar    1  UNL1       -0.0002
     22 N          62.1675   81.8636   13.1518 N.ar    1  UNL1       -0.2944
     23 C          61.9980   83.3525   13.0858 C.ar    1  UNL1        0.0782
     24 C          62.5325   84.1170   11.9111 C.ar    1  UNL1        0.0171
     25 C          63.2365   83.3925   10.8023 C.ar    1  UNL1        0.0019
     26 C          63.4060   81.9036   10.8682 C.ar    1  UNL1        0.0343
     27 C          64.1100   81.1790    9.7594 C.3     1  UNL1        0.0360
     28 C          62.8715   81.1392   12.0430 C.ar    1  UNL1        0.2569
     29 O          63.0410   79.6502   12.1088 O.2     1  UNL1       -0.2673
     30 C          60.2830   80.4502   14.2475 C.3     1  UNL1        0.0266
     31 C          61.6330   81.0992   14.3265 C.3     1  UNL1        0.1091
     32 C          66.4429   93.3073   12.7981 C.3     1  UNL1        0.0714
     33 C          67.0525   92.4046   13.8292 C.3     1  UNL1        0.0922
     34 C          66.3292   93.1512   14.9106 C.3     1  UNL1        0.0294
     35 C          67.7758   91.6578   12.7479 C.3     1  UNL1        0.0294
     36 O          67.6622   91.5017   14.8605 O.3     1  UNL1       -0.3866
     37 H          67.3526   91.7623   15.7420 H       1  UNL1        0.2102
@<TRIPOS>BOND
     1    30    31    1
     2    31    22    1
     3    22    23   ar
     4    23    24   ar
     5    24    16    1
     6    16    17   ar
     7    17    18   ar
     8    18    19   ar
     9    19    14    1
    10    14    15    1
    11    14     1    1
    12     1     2    1
    13     2     3    1
    14     3     4    1
    15     4    32    1
    16    32    33    1
    17    33    34    1
    18    33    35    1
    19    33    36    1
    20     4     8    1
    21     8     9   ar
    22     9    10   ar
    23    10    11   ar
    24    11    12   ar
    25    12    13   ar
    26     4     5    1
    27     5     6    1
    28     6     7    2
    29    19    20   ar
    30    20    21   ar
    31    24    25   ar
    32    25    26   ar
    33    26    27    1
    34    26    28   ar
    35    28    29    2
    36    28    22   ar
    37    21    16   ar
    38     6     1   am
    39    13     8   ar
    40    36    37    1
@<TRIPOS>MOLECULE
*****
 37 40 0 0 0
SMALL
GASTEIGER

@<TRIPOS>ATOM
      1 N          63.4750   90.6023   11.9735 N.am    1  UNL1       -0.2438
      2 C          64.1282   90.4445   13.3146 C.3     1  UNL1        0.1009
      3 C          65.3375   91.2616   13.6607 C.3     1  UNL1        0.0662
      4 C          65.8937   92.2366   12.6657 C.3     1  UNL1        0.1600
      5 O          65.2406   92.3945   11.3247 O.3     1  UNL1       -0.4374
      6 C          64.0312   91.5773   10.9785 C.2     1  UNL1        0.4051
      7 O          63.3781   91.7352    9.6375 O.2     1  UNL1       -0.2262
      8 C          66.8561   92.4421   13.7978 C.ar    1  UNL1        0.0138
      9 C          68.3125   92.1374   13.6087 C.ar    1  UNL1       -0.0010
     10 C          69.2749   92.3429   14.7409 C.ar    1  UNL1       -0.0002
     11 C          68.7807   92.8532   16.0620 C.ar    1  UNL1       -0.0000
     12 C          67.3243   93.1580   16.2510 C.ar    1  UNL1       -0.0002
     13 C          66.3619   92.9524   15.1190 C.ar    1  UNL1       -0.0010
     14 C          62.2657   89.7852   11.6275 C.3     1  UNL1        0.1011
     15 C          60.9960   90.4650   11.2083 C.3     1  UNL1        0.0265
     16 C          62.4468   85.2942   11.8468 C.ar    1  UNL1        0.0014
     17 C          61.5365   85.9607   10.8583 C.ar    1  UNL1       -0.0002
     18 C          61.4761   87.4577   10.7852 C.ar    1  UNL1       -0.0027
     19 C          62.3261   88.2882   11.7006 C.ar    1  UNL1       -0.0042
     20 C          63.2364   87.6217   12.6891 C.ar    1  UNL1       -0.0027
     21 C          63.2967   86.1246   12.7622 C.ar    1  UNL1       -0.0002
     22 N          61.9811   81.5826   13.1725 N.ar    1  UNL1       -0.2944
     23 C          61.9208   83.0796   13.0994 C.ar    1  UNL1        0.0782
     24 C          62.5071   83.7971   11.9199 C.ar    1  UNL1        0.0171
     25 C          63.1538   83.0177   10.8135 C.ar    1  UNL1        0.0019
     26 C          63.2142   81.5207   10.8866 C.ar    1  UNL1        0.0343
     27 C          63.8609   80.7412    9.7801 C.3     1  UNL1        0.0360
     28 C          62.6278   80.8032   12.0661 C.ar    1  UNL1        0.2569
     29 O          62.6881   79.3061   12.1392 O.2     1  UNL1       -0.2673
     30 C          59.9816   80.3650   14.2991 C.3     1  UNL1        0.0266
     31 C          61.3947   80.8651   14.3521 C.3     1  UNL1        0.1091
     32 C          66.7841   93.2830   12.0639 C.3     1  UNL1        0.0714
     33 C          66.6057   93.6851   10.6298 C.3     1  UNL1        0.0922
     34 C          65.8009   94.8743   11.0634 C.3     1  UNL1        0.0294
     35 C          67.4106   92.4959   10.1962 C.3     1  UNL1        0.0294
     36 O          66.4274   94.0872    9.1957 O.3     1  UNL1       -0.3866
     37 H          65.8982   94.8989    9.1509 H       1  UNL1        0.2102
@<TRIPOS>BOND
     1    30    31    1
     2    31    22    1
     3    22    23   ar
     4    23    24   ar
     5    24    16    1
     6    16    17   ar
     7    17    18   ar
     8    18    19   ar
     9    19    14    1
    10    14    15    1
    11    14     1    1
    12     1     2    1
    13     2     3    1
    14     3     4    1
    15     4    32    1
    16    32    33    1
    17    33    34    1
    18    33    35    1
    19    33    36    1
    20     4     8    1
    21     8     9   ar
    22     9    10   ar
    23    10    11   ar
    24    11    12   ar
    25    12    13   ar
    26     4     5    1
    27     5     6    1
    28     6     7    2
    29    19    20   ar
    30    20    21   ar
    31    24    25   ar
    32    25    26   ar
    33    26    27    1
    34    26    28   ar
    35    28    29    2
    36    28    22   ar
    37    21    16   ar
    38     6     1   am
    39    13     8   ar
    40    36    37    1
@<TRIPOS>MOLECULE
*****
 37 40 0 0 0
SMALL
GASTEIGER

@<TRIPOS>ATOM
      1 N          63.0203   90.9135   11.5384 N.am    1  UNL1       -0.2438
      2 C          63.5799   91.5661   10.3091 C.3     1  UNL1        0.1009
      3 C          64.7680   92.4753   10.4175 C.3     1  UNL1        0.0662
      4 C          65.3966   92.7319   11.7550 C.3     1  UNL1        0.1600
      5 O          64.8370   92.0793   12.9842 O.3     1  UNL1       -0.4374
      6 C          63.6489   91.1701   12.8759 C.2     1  UNL1        0.4051
      7 O          63.0893   90.5175   14.1052 O.2     1  UNL1       -0.2262
      8 C          66.2811   93.5753   10.8854 C.ar    1  UNL1        0.0138
      9 C          67.2094   92.9236    9.9039 C.ar    1  UNL1       -0.0010
     10 C          68.0940   93.7671    9.0342 C.ar    1  UNL1       -0.0002
     11 C          68.0501   95.2622    9.1462 C.ar    1  UNL1       -0.0000
     12 C          67.1218   95.9139   10.1278 C.ar    1  UNL1       -0.0002
     13 C          66.2373   95.0705   10.9974 C.ar    1  UNL1       -0.0010
     14 C          61.8322   90.0043   11.4300 C.3     1  UNL1        0.1011
     15 C          60.4725   90.5762   11.1577 C.3     1  UNL1        0.0265
     16 C          62.3470   85.5610   11.9221 C.ar    1  UNL1        0.0014
     17 C          61.2653   86.0966   11.0315 C.ar    1  UNL1       -0.0002
     18 C          61.0937   87.5777   10.8675 C.ar    1  UNL1       -0.0027
     19 C          62.0038   88.5232   11.5941 C.ar    1  UNL1       -0.0042
     20 C          63.0855   87.9876   12.4846 C.ar    1  UNL1       -0.0027
     21 C          63.2571   86.5064   12.6486 C.ar    1  UNL1       -0.0002
     22 N          63.0986   81.7567   11.0777 N.ar    1  UNL1       -0.2944
     23 C          62.9270   83.2378   10.9138 C.ar    1  UNL1        0.0782
     24 C          62.5186   84.0798   12.0861 C.ar    1  UNL1        0.0171
     25 C          62.2817   83.4408   13.4223 C.ar    1  UNL1        0.0019
     26 C          62.4533   81.9597   13.5862 C.ar    1  UNL1        0.0343
     27 C          62.2164   81.3206   14.9224 C.3     1  UNL1        0.0360
     28 C          62.8617   81.1177   12.4139 C.ar    1  UNL1        0.2569
     29 O          63.0333   79.6365   12.5779 O.2     1  UNL1       -0.2673
     30 C          62.7649   79.6482    9.5969 C.3     1  UNL1        0.0266
     31 C          63.5070   80.9147    9.9055 C.3     1  UNL1        0.1091
     32 C          66.3323   93.2814   12.7906 C.3     1  UNL1        0.0714
     33 C          66.9766   92.3601   13.7835 C.3     1  UNL1        0.0922
     34 C          67.7072   91.6705   12.6697 C.3     1  UNL1        0.0294
     35 C          66.2462   93.0497   14.8975 C.3     1  UNL1        0.0294
     36 O          67.6211   91.4388   14.7766 O.3     1  UNL1       -0.3866
     37 H          68.2054   90.8198   14.3115 H       1  UNL1        0.2102
@<TRIPOS>BOND
     1    30    31    1
     2    31    22    1
     3    22    23   ar
     4    23    24   ar
     5    24    16    1
     6    16    17   ar
     7    17    18   ar
     8    18    19   ar
     9    19    14    1
    10    14    15    1
    11    14     1    1
    12     1     2    1
    13     2     3    1
    14     3     4    1
    15     4    32    1
    16    32    33    1
    17    33    34    1
    18    33    35    1
    19    33    36    1
    20     4     8    1
    21     8     9   ar
    22     9    10   ar
    23    10    11   ar
    24    11    12   ar
    25    12    13   ar
    26     4     5    1
    27     5     6    1
    28     6     7    2
    29    19    20   ar
    30    20    21   ar
    31    24    25   ar
    32    25    26   ar
    33    26    27    1
    34    26    28   ar
    35    28    29    2
    36    28    22   ar
    37    21    16   ar
    38     6     1   am
    39    13     8   ar
    40    36    37    1
@<TRIPOS>MOLECULE
*****
 37 40 0 0 0
SMALL
GASTEIGER

@<TRIPOS>ATOM
      1 N          63.4477   90.5061   11.8962 N.am    1  UNL1       -0.2438
      2 C          64.0921   90.3066   13.2360 C.3     1  UNL1        0.1009
      3 C          65.2728   91.1425   13.6324 C.3     1  UNL1        0.0662
      4 C          65.8091   92.1780   12.6889 C.3     1  UNL1        0.1600
      5 O          65.1648   92.3775   11.3492 O.3     1  UNL1       -0.4374
      6 C          63.9841   91.5415   10.9528 C.2     1  UNL1        0.4051
      7 O          63.3398   91.7411    9.6130 O.2     1  UNL1       -0.2262
      8 C          66.7537   92.3600   13.8399 C.ar    1  UNL1        0.0138
      9 C          66.2266   92.7560   15.1872 C.ar    1  UNL1       -0.0010
     10 C          67.1712   92.9380   16.3383 C.ar    1  UNL1       -0.0002
     11 C          68.6428   92.7241   16.1418 C.ar    1  UNL1       -0.0000
     12 C          69.1698   92.3281   14.7944 C.ar    1  UNL1       -0.0002
     13 C          68.2253   92.1461   13.6435 C.ar    1  UNL1       -0.0010
     14 C          62.2670   89.6701   11.4999 C.3     1  UNL1        0.1011
     15 C          61.0251   90.3273   10.9749 C.3     1  UNL1        0.0265
     16 C          62.4508   85.1905   11.8859 C.ar    1  UNL1        0.0014
     17 C          61.5865   85.8177   10.8325 C.ar    1  UNL1       -0.0002
     18 C          61.5252   87.3108   10.7038 C.ar    1  UNL1       -0.0027
     19 C          62.3283   88.1769   11.6286 C.ar    1  UNL1       -0.0042
     20 C          63.1926   87.5497   12.6820 C.ar    1  UNL1       -0.0027
     21 C          63.2538   86.0565   12.8106 C.ar    1  UNL1       -0.0002
     22 N          63.0363   81.3699   10.9857 N.ar    1  UNL1       -0.2944
     23 C          62.9751   82.8631   10.8571 C.ar    1  UNL1        0.0782
     24 C          62.5120   83.6972   12.0146 C.ar    1  UNL1        0.0171
     25 C          62.1101   83.0381   13.3007 C.ar    1  UNL1        0.0019
     26 C          62.1714   81.5449   13.4293 C.ar    1  UNL1        0.0343
     27 C          61.7695   80.8858   14.7155 C.3     1  UNL1        0.0360
     28 C          62.6345   80.7108   12.2718 C.ar    1  UNL1        0.2569
     29 O          62.6957   79.2176   12.4005 O.2     1  UNL1       -0.2673
     30 C          62.7495   79.2923    9.4524 C.3     1  UNL1        0.0266
     31 C          63.4994   80.5358    9.8282 C.3     1  UNL1        0.1091
     32 C          66.6735   93.2767   12.1452 C.3     1  UNL1        0.0714
     33 C          66.5890   93.6493   10.6947 C.3     1  UNL1        0.0922
     34 C          65.7903   94.8670   11.0541 C.3     1  UNL1        0.0294
     35 C          67.3876   92.4316   10.3352 C.3     1  UNL1        0.0294
     36 O          66.5044   94.0220    9.2441 O.3     1  UNL1       -0.3866
     37 H          65.9992   94.8448    9.1506 H       1  UNL1        0.2102
@<TRIPOS>BOND
     1    30    31    1
     2    31    22    1
     3    22    23   ar
     4    23    24   ar
     5    24    16    1
     6    16    17   ar
     7    17    18   ar
     8    18    19   ar
     9    19    14    1
    10    14    15    1
    11    14     1    1
    12     1     2    1
    13     2     3    1
    14     3     4    1
    15     4    32    1
    16    32    33    1
    17    33    34    1
    18    33    35    1
    19    33    36    1
    20     4     8    1
    21     8     9   ar
    22     9    10   ar
    23    10    11   ar
    24    11    12   ar
    25    12    13   ar
    26     4     5    1
    27     5     6    1
    28     6     7    2
    29    19    20   ar
    30    20    21   ar
    31    24    25   ar
    32    25    26   ar
    33    26    27    1
    34    26    28   ar
    35    28    29    2
    36    28    22   ar
    37    21    16   ar
    38     6     1   am
    39    13     8   ar
    40    36    37    1
@<TRIPOS>MOLECULE
*****
 37 40 0 0 0
SMALL
GASTEIGER

@<TRIPOS>ATOM
      1 N          63.6987   87.1856   14.9686 N.am    1  UNL1       -0.2438
      2 C          63.7568   86.8793   13.5013 C.3     1  UNL1        0.1009
      3 C          63.7253   85.4555   13.0306 C.3     1  UNL1        0.0662
      4 C          63.6357   84.3379   14.0270 C.3     1  UNL1        0.1600
      5 O          63.5777   84.6441   15.4942 O.3     1  UNL1       -0.4374
      6 C          63.6092   86.0680   15.9651 C.2     1  UNL1        0.4051
      7 O          63.5511   86.3742   17.4323 O.2     1  UNL1       -0.2262
      8 C          63.6663   83.5483   12.7520 C.ar    1  UNL1        0.0138
      9 C          62.6693   83.8344   11.6686 C.ar    1  UNL1       -0.0010
     10 C          62.7000   83.0447   10.3935 C.ar    1  UNL1       -0.0002
     11 C          63.7277   81.9691   10.2021 C.ar    1  UNL1       -0.0000
     12 C          64.7247   81.6830   11.2856 C.ar    1  UNL1       -0.0002
     13 C          64.6941   82.4726   12.5606 C.ar    1  UNL1       -0.0010
     14 C          63.7302   88.6094   15.4394 C.3     1  UNL1        0.1011
     15 C          63.2018   88.9620   16.7983 C.3     1  UNL1        0.0265
     16 C          65.4100   91.8234   12.7750 C.ar    1  UNL1        0.0014
     17 C          64.1243   91.1425   12.4098 C.ar    1  UNL1       -0.0002
     18 C          63.5644   90.0712   13.2979 C.ar    1  UNL1       -0.0027
     19 C          64.2902   89.6807   14.5513 C.ar    1  UNL1       -0.0042
     20 C          65.5758   90.3617   14.9165 C.ar    1  UNL1       -0.0027
     21 C          66.1357   91.4330   14.0283 C.ar    1  UNL1       -0.0002
     22 N          67.3468   93.5931    9.7973 N.ar    1  UNL1       -0.2944
     23 C          66.7869   92.5218   10.6855 C.ar    1  UNL1        0.0782
     24 C          65.9699   92.8948   11.8868 C.ar    1  UNL1        0.0171
     25 C          65.7127   94.3389   12.2000 C.ar    1  UNL1        0.0019
     26 C          66.2725   95.4102   11.3119 C.ar    1  UNL1        0.0343
     27 C          66.0154   96.8545   11.6251 C.3     1  UNL1        0.0360
     28 C          67.0896   95.0373   10.1105 C.ar    1  UNL1        0.2569
     29 O          67.6495   96.1086    9.2223 O.2     1  UNL1       -0.2673
     30 C          68.9539   91.9451    8.5926 C.3     1  UNL1        0.0266
     31 C          68.1639   93.2202    8.5959 C.3     1  UNL1        0.1091
     32 C          63.5568   82.9461   14.5807 C.3     1  UNL1        0.0714
     33 C          62.2426   82.2236   14.6091 C.3     1  UNL1        0.0922
     34 C          62.9456   80.9329   14.3095 C.3     1  UNL1        0.0294
     35 C          61.5394   83.5143   14.9088 C.3     1  UNL1        0.0294
     36 O          60.9282   81.5011   14.6376 O.3     1  UNL1       -0.3866
     37 H          61.0736   80.5585   14.4610 H       1  UNL1        0.2102
@<TRIPOS>BOND
     1    30    31    1
     2    31    22    1
     3    22    23   ar
     4    23    24   ar
     5    24    16    1
     6    16    17   ar
     7    17    18   ar
     8    18    19   ar
     9    19    14    1
    10    14    15    1
    11    14     1    1
    12     1     2    1
    13     2     3    1
    14     3     4    1
    15     4    32    1
    16    32    33    1
    17    33    34    1
    18    33    35    1
    19    33    36    1
    20     4     8    1
    21     8     9   ar
    22     9    10   ar
    23    10    11   ar
    24    11    12   ar
    25    12    13   ar
    26     4     5    1
    27     5     6    1
    28     6     7    2
    29    19    20   ar
    30    20    21   ar
    31    24    25   ar
    32    25    26   ar
    33    26    27    1
    34    26    28   ar
    35    28    29    2
    36    28    22   ar
    37    21    16   ar
    38     6     1   am
    39    13     8   ar
    40    36    37    1
@<TRIPOS>MOLECULE
*****
 37 40 0 0 0
SMALL
GASTEIGER

@<TRIPOS>ATOM
      1 N          62.0770   87.0394   11.9470 N.am    1  UNL1       -0.2438
      2 C          61.6555   85.8418   11.1480 C.3     1  UNL1        0.1009
      3 C          62.1974   84.4850   11.4877 C.3     1  UNL1        0.0662
      4 C          63.1608   84.3257   12.6264 C.3     1  UNL1        0.1600
      5 O          63.5823   85.5232   13.4253 O.3     1  UNL1       -0.4374
      6 C          63.0404   86.8801   13.0856 C.2     1  UNL1        0.4051
      7 O          63.4618   88.0776   13.8846 O.2     1  UNL1       -0.2262
      8 C          63.0620   82.9011   12.1675 C.ar    1  UNL1        0.0138
      9 C          63.5472   82.5179   10.8009 C.ar    1  UNL1       -0.0010
     10 C          63.4483   81.0932   10.3420 C.ar    1  UNL1       -0.0002
     11 C          62.8643   80.0517   11.2499 C.ar    1  UNL1       -0.0000
     12 C          62.3792   80.4349   12.6165 C.ar    1  UNL1       -0.0002
     13 C          62.4780   81.8595   13.0754 C.ar    1  UNL1       -0.0010
     14 C          61.5350   88.3961   11.6073 C.3     1  UNL1        0.1011
     15 C          60.0530   88.6129   11.5255 C.3     1  UNL1        0.0265
     16 C          64.3553   91.8163   10.8335 C.ar    1  UNL1        0.0014
     17 C          63.5340   91.2530    9.7119 C.ar    1  UNL1       -0.0002
     18 C          62.5939   90.1130    9.9698 C.ar    1  UNL1       -0.0027
     19 C          62.4751   89.5362   11.3494 C.ar    1  UNL1       -0.0042
     20 C          63.2964   90.0994   12.4710 C.ar    1  UNL1       -0.0027
     21 C          64.2365   91.2395   12.2131 C.ar    1  UNL1       -0.0002
     22 N          67.5188   93.8577    9.5785 N.ar    1  UNL1       -0.2944
     23 C          66.5787   92.7177    9.8365 C.ar    1  UNL1        0.0782
     24 C          65.2954   92.9564   10.5756 C.ar    1  UNL1        0.0171
     25 C          64.9522   94.3350   11.0567 C.ar    1  UNL1        0.0019
     26 C          65.8923   95.4750   10.7987 C.ar    1  UNL1        0.0343
     27 C          65.5492   96.8537   11.2799 C.3     1  UNL1        0.0360
     28 C          67.1756   95.2363   10.0596 C.ar    1  UNL1        0.2569
     29 O          68.1157   96.3764    9.8017 O.2     1  UNL1       -0.2673
     30 C          69.2464   92.2178    8.5413 C.3     1  UNL1        0.0266
     31 C          68.8020   93.6191    8.8394 C.3     1  UNL1        0.1091
     32 C          64.0899   83.6717   13.6056 C.3     1  UNL1        0.0714
     33 C          64.3429   84.3088   14.9399 C.3     1  UNL1        0.0922
     34 C          62.9664   83.9161   15.3884 C.3     1  UNL1        0.0294
     35 C          65.7194   84.7014   14.4914 C.3     1  UNL1        0.0294
     36 O          64.5959   84.9458   16.2742 O.3     1  UNL1       -0.3866
     37 H          63.8113   84.8438   16.8352 H       1  UNL1        0.2102
@<TRIPOS>BOND
     1    30    31    1
     2    31    22    1
     3    22    23   ar
     4    23    24   ar
     5    24    16    1
     6    16    17   ar
     7    17    18   ar
     8    18    19   ar
     9    19    14    1
    10    14    15    1
    11    14     1    1
    12     1     2    1
    13     2     3    1
    14     3     4    1
    15     4    32    1
    16    32    33    1
    17    33    34    1
    18    33    35    1
    19    33    36    1
    20     4     8    1
    21     8     9   ar
    22     9    10   ar
    23    10    11   ar
    24    11    12   ar
    25    12    13   ar
    26     4     5    1
    27     5     6    1
    28     6     7    2
    29    19    20   ar
    30    20    21   ar
    31    24    25   ar
    32    25    26   ar
    33    26    27    1
    34    26    28   ar
    35    28    29    2
    36    28    22   ar
    37    21    16   ar
    38     6     1   am
    39    13     8   ar
    40    36    37    1
