@<TRIPOS>MOLECULE
*****
 39 43 0 0 0
SMALL
GASTEIGER

@<TRIPOS>ATOM
      1 C          61.4486   87.3681   10.4187 C.ar    1  UNL1        0.0719
      2 C          62.1213   86.1454   10.9686 C.ar    1  UNL1        0.1049
      3 N          62.8439   86.5384   12.2230 N.ar    1  UNL1       -0.2242
      4 N          63.6786   85.7511   13.1891 N.ar    1  UNL1       -0.1422
      5 C          64.2871   86.4294   14.3805 C.ar    1  UNL1        0.2211
      6 N          64.0610   87.8950   14.6058 N.ar    1  UNL1       -0.2060
      7 C          63.2263   88.6823   13.6398 C.ar    1  UNL1        0.1515
      8 C          62.6178   88.0040   12.4483 C.ar    1  UNL1        0.1107
      9 C          61.7554   88.5168   11.3332 C.ar    1  UNL1        0.0040
     10 C          59.3490   88.2773    7.2833 C.ar    1  UNL1        0.3086
     11 N          59.3170   86.7786    7.2290 N.ar    1  UNL1       -0.0923
     12 N          60.0996   86.2556    8.3969 N.ar    1  UNL1       -0.1057
     13 C          60.6153   87.4310    9.1730 C.ar    1  UNL1        0.2525
     14 O          60.1514   88.6805    8.4848 O.2     1  UNL1       -0.4048
     15 N          58.6937   89.2091    6.3075 N.pl3   1  UNL1       -0.2871
     16 H          57.7468   89.0851    6.0683 H       1  UNL1        0.1512
     17 C          59.4812   90.3299    5.6961 C.3     1  UNL1        0.0911
     18 C          57.2721   91.4762    4.9506 C.3     1  UNL1        0.0018
     19 C          58.7694   91.4758    5.0401 C.3     1  UNL1        0.0213
     20 C          61.2828   89.9301   11.1626 C.3     1  UNL1        0.0241
     21 C          59.9071   90.3208   11.6155 C.3     1  UNL1        0.0047
     22 C          62.1858   90.9528   10.5393 C.3     1  UNL1        0.0047
     23 N          63.0002   90.1480   13.8651 N.pl3   1  UNL1       -0.2949
     24 H          62.0839   90.5076   13.8830 H       1  UNL1        0.1537
     25 C          64.1700   91.0656   14.0632 C.ar    1  UNL1        0.0775
     26 C          64.8567   91.6725   12.8757 C.ar    1  UNL1        0.0237
     27 C          66.0266   92.5902   13.0738 C.ar    1  UNL1        0.0821
     28 C          66.5098   92.9009   14.4594 C.ar    1  UNL1        0.1468
     29 F          67.6798   93.8186   14.6575 F       1  UNL1       -0.2039
     30 C          65.8232   92.2941   15.6469 C.ar    1  UNL1        0.0607
     31 C          64.6533   91.3764   15.4488 C.ar    1  UNL1        0.1557
     32 F          63.9666   90.7695   16.6363 F       1  UNL1       -0.2028
     33 C          66.7133   93.1971   11.8863 C.2     1  UNL1        0.2480
     34 O          67.8666   92.4862   11.2425 O.2     1  UNL1       -0.2701
     35 N          66.2466   94.5149   11.3425 N.am    1  UNL1       -0.3024
     36 H          65.4896   94.9814   11.7651 H       1  UNL1        0.1497
     37 C          66.9332   95.1218   10.1551 C.3     1  UNL1        0.0720
     38 C          67.2934   96.3276    9.3388 C.3     1  UNL1        0.0213
     39 C          67.7623   94.9674    8.9146 C.3     1  UNL1        0.0213
@<TRIPOS>BOND
     1    18    19    1
     2    19    17    1
     3    17    15    1
     4    15    10    1
     5    10    11   ar
     6    11    12   ar
     7    12    13   ar
     8    13     1    1
     9     1     2   ar
    10     2     3   ar
    11     3     4   ar
    12     4     5   ar
    13     5     6   ar
    14     6     7   ar
    15     7    23    1
    16    23    25    1
    17    25    26   ar
    18    26    27   ar
    19    27    33    1
    20    33    34    2
    21    33    35   am
    22    35    37    1
    23    37    38    1
    24    38    39    1
    25    27    28   ar
    26    28    29    1
    27    28    30   ar
    28    30    31   ar
    29    31    32    1
    30     7     8   ar
    31     8     9   ar
    32     9    20    1
    33    20    21    1
    34    20    22    1
    35    13    14   ar
    36    14    10   ar
    37     9     1   ar
    38     8     3   ar
    39    31    25   ar
    40    39    37    1
    41    15    16    1
    42    23    24    1
    43    35    36    1
@<TRIPOS>MOLECULE
*****
 39 43 0 0 0
SMALL
GASTEIGER

@<TRIPOS>ATOM
      1 C          62.7746   85.5137   11.0762 C.ar    1  UNL1        0.0719
      2 C          62.1917   86.2412    9.9011 C.ar    1  UNL1        0.1049
      3 N          61.9932   87.6748   10.2953 N.ar    1  UNL1       -0.2242
      4 N          61.4528   88.8563    9.5456 N.ar    1  UNL1       -0.1422
      5 C          61.3727   90.1963   10.2147 C.ar    1  UNL1        0.2211
      6 N          61.8330   90.3549   11.6335 N.ar    1  UNL1       -0.2060
      7 C          62.3734   89.1735   12.3832 C.ar    1  UNL1        0.1515
      8 C          62.4535   87.8334   11.7141 C.ar    1  UNL1        0.1107
      9 C          62.9364   86.4978   12.1967 C.ar    1  UNL1        0.0040
     10 C          63.0981   81.6877   11.6440 C.ar    1  UNL1        0.3086
     11 N          64.2702   81.9474   10.7447 N.ar    1  UNL1       -0.0923
     12 N          64.2917   83.4122   10.4226 N.ar    1  UNL1       -0.1057
     13 C          63.1329   84.0579   11.1227 C.ar    1  UNL1        0.2525
     14 O          62.3952   82.9921   11.8776 O.2     1  UNL1       -0.4048
     15 N          62.6989   80.3573   12.2102 N.pl3   1  UNL1       -0.2871
     16 H          62.7032   79.5570   11.6368 H       1  UNL1        0.1512
     17 C          62.2933   80.2461   13.6500 C.3     1  UNL1        0.0911
     18 C          59.7610   80.2997   14.2279 C.3     1  UNL1        0.0018
     19 C          61.0905   80.9899   14.1499 C.3     1  UNL1        0.0213
     20 C          63.4849   86.1988   13.5604 C.3     1  UNL1        0.0241
     21 C          62.9398   85.0471   14.3521 C.3     1  UNL1        0.0047
     22 C          64.5784   87.0512   14.1326 C.3     1  UNL1        0.0047
     23 N          62.8337   89.3321   13.8020 N.pl3   1  UNL1       -0.2949
     24 H          62.4549   88.7613   14.5091 H       1  UNL1        0.1537
     25 C          63.8711   90.3603   14.1434 C.ar    1  UNL1        0.0775
     26 C          64.7544   90.9204   13.0681 C.ar    1  UNL1        0.0237
     27 C          65.7917   91.9486   13.4096 C.ar    1  UNL1        0.0821
     28 C          65.9458   92.4167   14.8263 C.ar    1  UNL1        0.1468
     29 F          66.9833   93.4450   15.1677 F       1  UNL1       -0.2039
     30 C          65.0626   91.8567   15.9016 C.ar    1  UNL1        0.0607
     31 C          64.0252   90.8284   15.5601 C.ar    1  UNL1        0.1557
     32 F          63.1420   90.2684   16.6354 F       1  UNL1       -0.2028
     33 C          66.6750   92.5087   12.3343 C.2     1  UNL1        0.2480
     34 O          68.1450   92.2102   12.3401 O.2     1  UNL1       -0.2701
     35 N          66.0882   93.3672   11.2533 N.am    1  UNL1       -0.3024
     36 H          65.1234   93.5631   11.2495 H       1  UNL1        0.1497
     37 C          66.9714   93.9273   10.1780 C.3     1  UNL1        0.0720
     38 C          67.9974   93.7242    9.1028 C.3     1  UNL1        0.0213
     39 C          67.4753   95.1005    9.3909 C.3     1  UNL1        0.0213
@<TRIPOS>BOND
     1    18    19    1
     2    19    17    1
     3    17    15    1
     4    15    10    1
     5    10    11   ar
     6    11    12   ar
     7    12    13   ar
     8    13     1    1
     9     1     2   ar
    10     2     3   ar
    11     3     4   ar
    12     4     5   ar
    13     5     6   ar
    14     6     7   ar
    15     7    23    1
    16    23    25    1
    17    25    26   ar
    18    26    27   ar
    19    27    33    1
    20    33    34    2
    21    33    35   am
    22    35    37    1
    23    37    38    1
    24    38    39    1
    25    27    28   ar
    26    28    29    1
    27    28    30   ar
    28    30    31   ar
    29    31    32    1
    30     7     8   ar
    31     8     9   ar
    32     9    20    1
    33    20    21    1
    34    20    22    1
    35    13    14   ar
    36    14    10   ar
    37     9     1   ar
    38     8     3   ar
    39    31    25   ar
    40    39    37    1
    41    15    16    1
    42    23    24    1
    43    35    36    1
@<TRIPOS>MOLECULE
*****
 39 43 0 0 0
SMALL
GASTEIGER

@<TRIPOS>ATOM
      1 C          61.8385   86.9669   10.8448 C.ar    1  UNL1        0.0719
      2 C          62.5146   85.8694   11.6117 C.ar    1  UNL1        0.1049
      3 N          63.1756   86.4811   12.8112 N.ar    1  UNL1       -0.2242
      4 N          63.9866   85.8851   13.9235 N.ar    1  UNL1       -0.1422
      5 C          64.5300   86.7648   15.0101 C.ar    1  UNL1        0.2211
      6 N          64.2624   88.2405   14.9845 N.ar    1  UNL1       -0.2060
      7 C          63.4515   88.8366   13.8722 C.ar    1  UNL1        0.1515
      8 C          62.9081   87.9569   12.7856 C.ar    1  UNL1        0.1107
      9 C          62.0817   88.2571   11.5703 C.ar    1  UNL1        0.0040
     10 C          60.2105   85.9061    7.4848 C.ar    1  UNL1        0.3086
     11 N          59.4959   87.1962    7.7585 N.ar    1  UNL1       -0.0923
     12 N          60.0188   87.7506    9.0505 N.ar    1  UNL1       -0.1057
     13 C          61.0566   86.8032    9.5753 C.ar    1  UNL1        0.2525
     14 O          61.1751   85.6632    8.6076 O.2     1  UNL1       -0.4048
     15 N          59.9980   85.0152    6.2968 N.pl3   1  UNL1       -0.2871
     16 H          59.1726   85.0917    5.7656 H       1  UNL1        0.1512
     17 C          61.0430   84.0080    5.9181 C.3     1  UNL1        0.0911
     18 C          63.3269   84.7505    6.9092 C.3     1  UNL1        0.0018
     19 C          62.4655   84.4411    5.7208 C.3     1  UNL1        0.0213
     20 C          61.5856   89.6100   11.1537 C.3     1  UNL1        0.0241
     21 C          60.2418   90.0909   11.6152 C.3     1  UNL1        0.0047
     22 C          62.4332   90.4820   10.2756 C.3     1  UNL1        0.0047
     23 N          63.1839   90.3123   13.8466 N.pl3   1  UNL1       -0.2949
     24 H          62.2668   90.6440   13.7126 H       1  UNL1        0.1537
     25 C          64.3138   91.2826   14.0253 C.ar    1  UNL1        0.0775
     26 C          64.9474   91.9249   12.8269 C.ar    1  UNL1        0.0237
     27 C          66.0773   92.8951   13.0056 C.ar    1  UNL1        0.0821
     28 C          66.5736   93.2232   14.3826 C.ar    1  UNL1        0.1468
     29 F          67.7035   94.1935   14.5612 F       1  UNL1       -0.2039
     30 C          65.9400   92.5809   15.5809 C.ar    1  UNL1        0.0607
     31 C          64.8101   91.6106   15.4023 C.ar    1  UNL1        0.1557
     32 F          64.1765   90.9683   16.6006 F       1  UNL1       -0.2028
     33 C          66.7109   93.5374   11.8072 C.2     1  UNL1        0.2480
     34 O          67.7851   92.8152   11.0493 O.2     1  UNL1       -0.2701
     35 N          66.2704   94.9020   11.3669 N.am    1  UNL1       -0.3024
     36 H          65.5654   95.3760   11.8644 H       1  UNL1        0.1497
     37 C          66.9040   95.5443   10.1686 C.3     1  UNL1        0.0720
     38 C          67.2734   96.7777    9.3990 C.3     1  UNL1        0.0213
     39 C          67.6319   95.4235    8.8627 C.3     1  UNL1        0.0213
@<TRIPOS>BOND
     1    18    19    1
     2    19    17    1
     3    17    15    1
     4    15    10    1
     5    10    11   ar
     6    11    12   ar
     7    12    13   ar
     8    13     1    1
     9     1     2   ar
    10     2     3   ar
    11     3     4   ar
    12     4     5   ar
    13     5     6   ar
    14     6     7   ar
    15     7    23    1
    16    23    25    1
    17    25    26   ar
    18    26    27   ar
    19    27    33    1
    20    33    34    2
    21    33    35   am
    22    35    37    1
    23    37    38    1
    24    38    39    1
    25    27    28   ar
    26    28    29    1
    27    28    30   ar
    28    30    31   ar
    29    31    32    1
    30     7     8   ar
    31     8     9   ar
    32     9    20    1
    33    20    21    1
    34    20    22    1
    35    13    14   ar
    36    14    10   ar
    37     9     1   ar
    38     8     3   ar
    39    31    25   ar
    40    39    37    1
    41    15    16    1
    42    23    24    1
    43    35    36    1
