@<TRIPOS>MOLECULE
*****
 31 35 0 0 0
SMALL
GASTEIGER

@<TRIPOS>ATOM
      1 C          62.9791   90.9199   11.5911 C.3     1  UNL1        0.0749
      2 C          64.2685   91.6814   11.5043 C.3     1  UNL1        0.0444
      3 C          65.1665   91.7745   12.7021 C.ar    1  UNL1       -0.0101
      4 C          64.7752   91.1062   13.9867 C.ar    1  UNL1       -0.0091
      5 C          65.6733   91.1993   15.1846 C.ar    1  UNL1       -0.0032
      6 C          66.9627   91.9608   15.0978 C.ar    1  UNL1        0.0010
      7 C          67.3541   92.6290   13.8132 C.ar    1  UNL1        0.0142
      8 C          66.4561   92.5359   12.6154 C.ar    1  UNL1        0.0436
      9 C          63.4857   90.3448   14.0735 C.3     1  UNL1        0.0954
     10 N          62.5877   90.2516   12.8757 N.3     1  UNL1       -0.2934
     11 H          61.6882   90.6462   13.1507 H       1  UNL1        0.1236
     12 N          66.8474   93.2042   11.3308 N.pl3   1  UNL1       -0.3049
     13 C          67.6459   92.4525   10.3072 C.3     1  UNL1        0.1079
     14 C          68.0372   93.1208    9.0226 C.3     1  UNL1        0.0903
     15 N          67.6302   94.5408    8.7615 N.3     1  UNL1       -0.2946
     16 C          66.8318   95.2924    9.7851 C.3     1  UNL1        0.0903
     17 C          66.4404   94.6241   11.0697 C.3     1  UNL1        0.1079
     18 H          67.0788   94.5360    7.9034 H       1  UNL1        0.1233
     19 C          62.0810   90.8268   10.3932 C.3     1  UNL1        0.0886
     20 C          59.6557   90.5686   11.2884 C.3     1  UNL1        0.0899
     21 N          60.8021   90.0471   10.4736 N.3     1  UNL1       -0.2667
     22 C          60.6695   88.7460    9.7391 C.3     1  UNL1        0.0978
     23 C          59.8775   88.6802    8.4669 C.3     1  UNL1        0.0224
     24 C          59.7449   87.3791    7.7324 C.3     1  UNL1        0.0065
     25 C          60.4043   86.1438    8.2700 C.3     1  UNL1        0.0277
     26 C          61.1963   86.2095    9.5422 C.ar    1  UNL1       -0.0073
     27 C          61.8557   84.9742   10.0798 C.ar    1  UNL1       -0.0015
     28 C          62.6477   85.0400   11.3520 C.ar    1  UNL1        0.0203
     29 C          62.7803   86.3411   12.0865 C.ar    1  UNL1        0.0985
     30 N          62.1209   87.5764   11.5489 N.ar    1  UNL1       -0.2471
     31 C          61.3289   87.5106   10.2767 C.ar    1  UNL1        0.0695
@<TRIPOS>BOND
     1    20    21    1
     2    21    19    1
     3     1    19    1
     4     1     2    1
     5     2     3    1
     6     3     4   ar
     7     4     5   ar
     8     5     6   ar
     9     6     7   ar
    10     7     8   ar
    11     8    12    1
    12    12    13    1
    13    13    14    1
    14    14    15    1
    15    15    16    1
    16    16    17    1
    17     4     9    1
    18     9    10    1
    19    22    21    1
    20    22    23    1
    21    23    24    1
    22    24    25    1
    23    25    26    1
    24    26    27   ar
    25    27    28   ar
    26    28    29   ar
    27    29    30   ar
    28    30    31   ar
    29    10     1    1
    30    31    22    1
    31     8     3   ar
    32    17    12    1
    33    31    26   ar
    34    15    18    1
    35    10    11    1
@<TRIPOS>MOLECULE
*****
 31 35 0 0 0
SMALL
GASTEIGER

@<TRIPOS>ATOM
      1 C          61.0814   87.0766   10.4548 C.3     1  UNL1        0.0749
      2 C          61.8171   86.3419   11.5360 C.3     1  UNL1        0.0444
      3 C          62.7352   85.2097   11.1824 C.ar    1  UNL1       -0.0101
      4 C          62.9176   84.8122    9.7476 C.ar    1  UNL1       -0.0091
      5 C          63.8358   83.6799    9.3941 C.ar    1  UNL1       -0.0032
      6 C          64.5714   82.9452   10.4753 C.ar    1  UNL1        0.0010
      7 C          64.3889   83.3427   11.9101 C.ar    1  UNL1        0.0142
      8 C          63.4708   84.4749   12.2637 C.ar    1  UNL1        0.0436
      9 C          62.1820   85.5469    8.6664 C.3     1  UNL1        0.0954
     10 N          61.2639   86.6791    9.0200 N.3     1  UNL1       -0.2934
     11 H          60.3408   86.4321    8.6633 H       1  UNL1        0.1236
     12 N          63.2884   84.8725   13.6985 N.pl3   1  UNL1       -0.3049
     13 C          62.2877   84.1539   14.5544 C.3     1  UNL1        0.1079
     14 C          62.1053   84.5515   15.9892 C.3     1  UNL1        0.0903
     15 N          62.9234   85.6676   16.5681 N.3     1  UNL1       -0.2946
     16 C          63.9240   86.3861   15.7122 C.3     1  UNL1        0.0903
     17 C          64.1065   85.9885   14.2774 C.3     1  UNL1        0.1079
     18 H          63.4378   85.2768   17.3574 H       1  UNL1        0.1233
     19 C          60.1633   88.2089   10.8084 C.3     1  UNL1        0.0886
     20 C          59.7826   89.4582   13.0545 C.3     1  UNL1        0.0899
     21 N          60.5932   89.2379   11.8116 N.3     1  UNL1       -0.2667
     22 C          61.8336   90.0465   11.5721 C.3     1  UNL1        0.0978
     23 C          62.1133   90.6047   10.2082 C.3     1  UNL1        0.0224
     24 C          63.3537   91.4133    9.9686 C.3     1  UNL1        0.0065
     25 C          64.3145   91.6638   11.0930 C.3     1  UNL1        0.0277
     26 C          64.0349   91.1057   12.4569 C.ar    1  UNL1       -0.0073
     27 C          64.9956   91.3562   13.5812 C.ar    1  UNL1       -0.0015
     28 C          64.7159   90.7980   14.9451 C.ar    1  UNL1        0.0203
     29 C          63.4755   89.9893   15.1847 C.ar    1  UNL1        0.0985
     30 N          62.5147   89.7388   14.0603 N.ar    1  UNL1       -0.2471
     31 C          62.7944   90.2970   12.6965 C.ar    1  UNL1        0.0695
@<TRIPOS>BOND
     1    20    21    1
     2    21    19    1
     3     1    19    1
     4     1     2    1
     5     2     3    1
     6     3     4   ar
     7     4     5   ar
     8     5     6   ar
     9     6     7   ar
    10     7     8   ar
    11     8    12    1
    12    12    13    1
    13    13    14    1
    14    14    15    1
    15    15    16    1
    16    16    17    1
    17     4     9    1
    18     9    10    1
    19    22    21    1
    20    22    23    1
    21    23    24    1
    22    24    25    1
    23    25    26    1
    24    26    27   ar
    25    27    28   ar
    26    28    29   ar
    27    29    30   ar
    28    30    31   ar
    29    10     1    1
    30    31    22    1
    31     8     3   ar
    32    17    12    1
    33    31    26   ar
    34    15    18    1
    35    10    11    1
@<TRIPOS>MOLECULE
*****
 31 35 0 0 0
SMALL
GASTEIGER

@<TRIPOS>ATOM
      1 C          63.1779   90.8782   12.4329 C.3     1  UNL1        0.0749
      2 C          64.3980   91.7156   12.1878 C.3     1  UNL1        0.0444
      3 C          65.3077   92.0672   13.3274 C.ar    1  UNL1       -0.0101
      4 C          64.9974   91.5813   14.7121 C.ar    1  UNL1       -0.0091
      5 C          65.9072   91.9328   15.8518 C.ar    1  UNL1       -0.0032
      6 C          67.1273   92.7702   15.6066 C.ar    1  UNL1        0.0010
      7 C          67.4376   93.2561   14.2218 C.ar    1  UNL1        0.0142
      8 C          66.5278   92.9046   13.0822 C.ar    1  UNL1        0.0436
      9 C          63.7774   90.7438   14.9573 C.3     1  UNL1        0.0954
     10 N          62.8676   90.3923   13.8177 N.3     1  UNL1       -0.2934
     11 H          61.9439   90.7531   14.0563 H       1  UNL1        0.1236
     12 N          66.8382   93.3905   11.6975 N.pl3   1  UNL1       -0.3049
     13 C          66.3771   94.7488   11.2583 C.3     1  UNL1        0.1079
     14 C          66.6874   95.2347    9.8736 C.3     1  UNL1        0.0903
     15 N          67.4588   94.3623    8.9279 N.3     1  UNL1       -0.2946
     16 C          67.9197   93.0042    9.3671 C.3     1  UNL1        0.0903
     17 C          67.6094   92.5183   10.7518 C.3     1  UNL1        0.1079
     18 H          68.2933   94.8842    8.6601 H       1  UNL1        0.1233
     19 C          62.2681   90.5266   11.2933 C.3     1  UNL1        0.0886
     20 C          59.9448   89.8034   12.2039 C.3     1  UNL1        0.0899
     21 N          61.2129   89.4758   11.4727 N.3     1  UNL1       -0.2667
     22 C          61.4258   88.0973   10.9209 C.3     1  UNL1        0.0978
     23 C          62.3052   87.1251   11.6499 C.3     1  UNL1        0.0224
     24 C          62.5180   85.7467   11.0980 C.3     1  UNL1        0.0065
     25 C          61.8514   85.3404    9.8172 C.3     1  UNL1        0.0277
     26 C          60.9720   86.3125    9.0881 C.ar    1  UNL1       -0.0073
     27 C          60.3054   85.9062    7.8073 C.ar    1  UNL1       -0.0015
     28 C          59.4260   86.8784    7.0783 C.ar    1  UNL1        0.0203
     29 C          59.2132   88.2569    7.6301 C.ar    1  UNL1        0.0985
     30 N          59.8797   88.6632    8.9110 N.ar    1  UNL1       -0.2471
     31 C          60.7591   87.6910    9.6400 C.ar    1  UNL1        0.0695
@<TRIPOS>BOND
     1    20    21    1
     2    21    19    1
     3     1    19    1
     4     1     2    1
     5     2     3    1
     6     3     4   ar
     7     4     5   ar
     8     5     6   ar
     9     6     7   ar
    10     7     8   ar
    11     8    12    1
    12    12    13    1
    13    13    14    1
    14    14    15    1
    15    15    16    1
    16    16    17    1
    17     4     9    1
    18     9    10    1
    19    22    21    1
    20    22    23    1
    21    23    24    1
    22    24    25    1
    23    25    26    1
    24    26    27   ar
    25    27    28   ar
    26    28    29   ar
    27    29    30   ar
    28    30    31   ar
    29    10     1    1
    30    31    22    1
    31     8     3   ar
    32    17    12    1
    33    31    26   ar
    34    15    18    1
    35    10    11    1
@<TRIPOS>MOLECULE
*****
 31 35 0 0 0
SMALL
GASTEIGER

@<TRIPOS>ATOM
      1 C          64.2773   86.5202   14.5901 C.3     1  UNL1        0.0749
      2 C          63.6694   85.9341   13.3504 C.3     1  UNL1        0.0444
      3 C          63.2649   84.4900   13.3240 C.ar    1  UNL1       -0.0101
      4 C          63.4683   83.6319   14.5374 C.ar    1  UNL1       -0.0091
      5 C          63.0637   82.1876   14.5110 C.ar    1  UNL1       -0.0032
      6 C          62.4558   81.6016   13.2713 C.ar    1  UNL1        0.0010
      7 C          62.2524   82.4597   12.0579 C.ar    1  UNL1        0.0142
      8 C          62.6569   83.9039   12.0843 C.ar    1  UNL1        0.0436
      9 C          64.0762   84.2179   15.7771 C.3     1  UNL1        0.0954
     10 N          64.4808   85.6620   15.8034 N.3     1  UNL1       -0.2934
     11 H          65.4781   85.6846   16.0162 H       1  UNL1        0.1236
     12 N          62.4535   84.7620   10.8709 N.pl3   1  UNL1       -0.3049
     13 C          63.2832   84.5326    9.6424 C.3     1  UNL1        0.1079
     14 C          63.0797   85.3907    8.4290 C.3     1  UNL1        0.0903
     15 N          62.0467   86.4782    8.4441 N.3     1  UNL1       -0.2946
     16 C          61.2171   86.7075    9.6726 C.3     1  UNL1        0.0903
     17 C          61.4205   85.8494   10.8860 C.3     1  UNL1        0.1079
     18 H          61.3973   86.2781    7.6835 H       1  UNL1        0.1233
     19 C          64.6819   87.9644   14.6164 C.3     1  UNL1        0.0886
     20 C          62.7092   89.3943   15.5185 C.3     1  UNL1        0.0899
     21 N          63.6526   89.0355   14.4088 N.3     1  UNL1       -0.2667
     22 C          63.5666   89.7478   13.0916 C.3     1  UNL1        0.0978
     23 C          62.6416   89.2422   12.0245 C.3     1  UNL1        0.0224
     24 C          62.5556   89.9545   10.7072 C.3     1  UNL1        0.0065
     25 C          63.3946   91.1725   10.4570 C.3     1  UNL1        0.0277
     26 C          64.3196   91.6782   11.5242 C.ar    1  UNL1       -0.0073
     27 C          65.1586   92.8962   11.2740 C.ar    1  UNL1       -0.0015
     28 C          66.0836   93.4018   12.3410 C.ar    1  UNL1        0.0203
     29 C          66.1696   92.6894   13.6583 C.ar    1  UNL1        0.0985
     30 N          65.3306   91.4715   13.9085 N.ar    1  UNL1       -0.2471
     31 C          64.4056   90.9659   12.8414 C.ar    1  UNL1        0.0695
@<TRIPOS>BOND
     1    20    21    1
     2    21    19    1
     3     1    19    1
     4     1     2    1
     5     2     3    1
     6     3     4   ar
     7     4     5   ar
     8     5     6   ar
     9     6     7   ar
    10     7     8   ar
    11     8    12    1
    12    12    13    1
    13    13    14    1
    14    14    15    1
    15    15    16    1
    16    16    17    1
    17     4     9    1
    18     9    10    1
    19    22    21    1
    20    22    23    1
    21    23    24    1
    22    24    25    1
    23    25    26    1
    24    26    27   ar
    25    27    28   ar
    26    28    29   ar
    27    29    30   ar
    28    30    31   ar
    29    10     1    1
    30    31    22    1
    31     8     3   ar
    32    17    12    1
    33    31    26   ar
    34    15    18    1
    35    10    11    1
@<TRIPOS>MOLECULE
*****
 31 35 0 0 0
SMALL
GASTEIGER

@<TRIPOS>ATOM
      1 C          63.4405   84.1196   12.7134 C.3     1  UNL1        0.0749
      2 C          62.7796   85.2892   12.0464 C.3     1  UNL1        0.0444
      3 C          62.6565   85.3293   10.5520 C.ar    1  UNL1       -0.0101
      4 C          63.1944   84.1996    9.7246 C.ar    1  UNL1       -0.0091
      5 C          63.0713   84.2397    8.2302 C.ar    1  UNL1       -0.0032
      6 C          62.4104   85.4094    7.5632 C.ar    1  UNL1        0.0010
      7 C          61.8725   86.5391    8.3906 C.ar    1  UNL1        0.0142
      8 C          61.9955   86.4990    9.8849 C.ar    1  UNL1        0.0436
      9 C          63.8554   83.0300   10.3916 C.3     1  UNL1        0.0954
     10 N          63.9784   82.9899   11.8860 N.3     1  UNL1       -0.2934
     11 H          64.9736   82.9178   12.0977 H       1  UNL1        0.1236
     12 N          61.4576   87.6287   10.7123 N.pl3   1  UNL1       -0.3049
     13 C          59.9915   87.6999   11.0216 C.3     1  UNL1        0.1079
     14 C          59.4536   88.8295   11.8490 C.3     1  UNL1        0.0903
     15 N          60.3818   89.8880   12.3671 N.3     1  UNL1       -0.2946
     16 C          61.8478   89.8167   12.0578 C.3     1  UNL1        0.0903
     17 C          62.3857   88.6870   11.2304 C.3     1  UNL1        0.1079
     18 H          60.2948   89.8841   13.3834 H       1  UNL1        0.1233
     19 C          63.5636   84.0795   14.2078 C.3     1  UNL1        0.0886
     20 C          65.9073   85.1206   14.6239 C.3     1  UNL1        0.0899
     21 N          64.4366   85.0730   14.9154 N.3     1  UNL1       -0.2667
     22 C          63.8390   86.0190   15.9144 C.3     1  UNL1        0.0978
     23 C          63.2345   85.4890   17.1808 C.3     1  UNL1        0.0224
     24 C          62.6370   86.4350   18.1798 C.3     1  UNL1        0.0065
     25 C          62.6439   87.9109   17.9125 C.3     1  UNL1        0.0277
     26 C          63.2484   88.4409   16.6461 C.ar    1  UNL1       -0.0073
     27 C          63.2554   89.9169   16.3788 C.ar    1  UNL1       -0.0015
     28 C          63.8599   90.4469   15.1124 C.ar    1  UNL1        0.0203
     29 C          64.4575   89.5009   14.1134 C.ar    1  UNL1        0.0985
     30 N          64.4505   88.0249   14.3807 N.ar    1  UNL1       -0.2471
     31 C          63.8460   87.4950   15.6471 C.ar    1  UNL1        0.0695
@<TRIPOS>BOND
     1    20    21    1
     2    21    19    1
     3     1    19    1
     4     1     2    1
     5     2     3    1
     6     3     4   ar
     7     4     5   ar
     8     5     6   ar
     9     6     7   ar
    10     7     8   ar
    11     8    12    1
    12    12    13    1
    13    13    14    1
    14    14    15    1
    15    15    16    1
    16    16    17    1
    17     4     9    1
    18     9    10    1
    19    22    21    1
    20    22    23    1
    21    23    24    1
    22    24    25    1
    23    25    26    1
    24    26    27   ar
    25    27    28   ar
    26    28    29   ar
    27    29    30   ar
    28    30    31   ar
    29    10     1    1
    30    31    22    1
    31     8     3   ar
    32    17    12    1
    33    31    26   ar
    34    15    18    1
    35    10    11    1
@<TRIPOS>MOLECULE
*****
 31 35 0 0 0
SMALL
GASTEIGER

@<TRIPOS>ATOM
      1 C          62.0731   87.5777   10.6255 C.3     1  UNL1        0.0749
      2 C          62.5052   86.6185   11.6947 C.3     1  UNL1        0.0444
      3 C          62.9849   85.2470   11.3225 C.ar    1  UNL1       -0.0101
      4 C          63.0325   84.8346    9.8811 C.ar    1  UNL1       -0.0091
      5 C          63.5123   83.4629    9.5089 C.ar    1  UNL1       -0.0032
      6 C          63.9443   82.5037   10.5782 C.ar    1  UNL1        0.0010
      7 C          63.8966   82.9161   12.0196 C.ar    1  UNL1        0.0142
      8 C          63.4169   84.2877   12.3918 C.ar    1  UNL1        0.0436
      9 C          62.6005   85.7938    8.8119 C.3     1  UNL1        0.0954
     10 N          62.1208   87.1653    9.1841 N.3     1  UNL1       -0.2934
     11 H          61.1718   87.2540    8.8209 H       1  UNL1        0.1236
     12 N          63.3692   84.7001   13.8332 N.pl3   1  UNL1       -0.3049
     13 C          64.3844   85.6643   14.3714 C.3     1  UNL1        0.1079
     14 C          64.3368   86.0767   15.8128 C.3     1  UNL1        0.0903
     15 N          63.2738   85.5249   16.7160 N.3     1  UNL1       -0.2946
     16 C          62.2587   84.5607   16.1778 C.3     1  UNL1        0.0903
     17 C          62.3064   84.1483   14.7364 C.3     1  UNL1        0.1079
     18 H          62.7559   86.3232   17.0833 H       1  UNL1        0.1233
     19 C          61.5934   88.9494   10.9977 C.3     1  UNL1        0.0886
     20 C          62.6220   91.0007    9.7793 C.3     1  UNL1        0.0899
     21 N          62.5468   90.1073   10.9820 N.3     1  UNL1       -0.2667
     22 C          63.4250   90.3719   12.1688 C.3     1  UNL1        0.0978
     23 C          63.3104   89.5127   13.3930 C.3     1  UNL1        0.0224
     24 C          64.1886   89.7773   14.5799 C.3     1  UNL1        0.0065
     25 C          65.1815   90.9010   14.5426 C.3     1  UNL1        0.0277
     26 C          65.2962   91.7602   13.3184 C.ar    1  UNL1       -0.0073
     27 C          66.2891   92.8839   13.2811 C.ar    1  UNL1       -0.0015
     28 C          66.4037   93.7431   12.0569 C.ar    1  UNL1        0.0203
     29 C          65.5255   93.4785   10.8700 C.ar    1  UNL1        0.0985
     30 N          64.5326   92.3548   10.9073 N.ar    1  UNL1       -0.2471
     31 C          64.4180   91.4957   12.1315 C.ar    1  UNL1        0.0695
@<TRIPOS>BOND
     1    20    21    1
     2    21    19    1
     3     1    19    1
     4     1     2    1
     5     2     3    1
     6     3     4   ar
     7     4     5   ar
     8     5     6   ar
     9     6     7   ar
    10     7     8   ar
    11     8    12    1
    12    12    13    1
    13    13    14    1
    14    14    15    1
    15    15    16    1
    16    16    17    1
    17     4     9    1
    18     9    10    1
    19    22    21    1
    20    22    23    1
    21    23    24    1
    22    24    25    1
    23    25    26    1
    24    26    27   ar
    25    27    28   ar
    26    28    29   ar
    27    29    30   ar
    28    30    31   ar
    29    10     1    1
    30    31    22    1
    31     8     3   ar
    32    17    12    1
    33    31    26   ar
    34    15    18    1
    35    10    11    1
@<TRIPOS>MOLECULE
*****
 31 35 0 0 0
SMALL
GASTEIGER

@<TRIPOS>ATOM
      1 C          64.2630   86.0548   14.7799 C.3     1  UNL1        0.0749
      2 C          63.7350   85.4433   13.5160 C.3     1  UNL1        0.0444
      3 C          63.0987   84.0854   13.5487 C.ar    1  UNL1       -0.0101
      4 C          62.9904   83.3389   14.8453 C.ar    1  UNL1       -0.0091
      5 C          62.3540   81.9809   14.8779 C.ar    1  UNL1       -0.0032
      6 C          61.8261   81.3695   13.6140 C.ar    1  UNL1        0.0010
      7 C          61.9345   82.1160   12.3175 C.ar    1  UNL1        0.0142
      8 C          62.5708   83.4739   12.2848 C.ar    1  UNL1        0.0436
      9 C          63.5183   83.9504   16.1091 C.3     1  UNL1        0.0954
     10 N          64.1546   85.3083   16.0764 N.3     1  UNL1       -0.2934
     11 H          65.1040   85.1973   16.4325 H       1  UNL1        0.1236
     12 N          62.6791   84.2204   10.9883 N.pl3   1  UNL1       -0.3049
     13 C          63.6452   83.7609    9.9368 C.3     1  UNL1        0.1079
     14 C          63.7536   84.5073    8.6402 C.3     1  UNL1        0.0903
     15 N          62.8958   85.7134    8.3952 N.3     1  UNL1       -0.2946
     16 C          61.9298   86.1728    9.4467 C.3     1  UNL1        0.0903
     17 C          61.8215   85.4263   10.7432 C.3     1  UNL1        0.1079
     18 H          62.3483   85.5198    7.5567 H       1  UNL1        0.1233
     19 C          64.8993   87.4128   14.7472 C.3     1  UNL1        0.0886
     20 C          62.9718   88.7214   15.8973 C.3     1  UNL1        0.0899
     21 N          64.0477   88.6429   14.8549 N.3     1  UNL1       -0.2667
     22 C          64.2719   89.7945   13.9203 C.3     1  UNL1        0.0978
     23 C          65.3050   90.8327   14.2437 C.3     1  UNL1        0.0224
     24 C          65.5292   91.9843   13.3090 C.3     1  UNL1        0.0065
     25 C          64.7202   92.0977   12.0510 C.3     1  UNL1        0.0277
     26 C          63.6870   91.0594   11.7276 C.ar    1  UNL1       -0.0073
     27 C          62.8779   91.1728   10.4696 C.ar    1  UNL1       -0.0015
     28 C          61.8448   90.1346   10.1463 C.ar    1  UNL1        0.0203
     29 C          61.6206   88.9830   11.0809 C.ar    1  UNL1        0.0985
     30 N          62.4296   88.8696   12.3389 N.ar    1  UNL1       -0.2471
     31 C          63.4628   89.9078   12.6622 C.ar    1  UNL1        0.0695
@<TRIPOS>BOND
     1    20    21    1
     2    21    19    1
     3     1    19    1
     4     1     2    1
     5     2     3    1
     6     3     4   ar
     7     4     5   ar
     8     5     6   ar
     9     6     7   ar
    10     7     8   ar
    11     8    12    1
    12    12    13    1
    13    13    14    1
    14    14    15    1
    15    15    16    1
    16    16    17    1
    17     4     9    1
    18     9    10    1
    19    22    21    1
    20    22    23    1
    21    23    24    1
    22    24    25    1
    23    25    26    1
    24    26    27   ar
    25    27    28   ar
    26    28    29   ar
    27    29    30   ar
    28    30    31   ar
    29    10     1    1
    30    31    22    1
    31     8     3   ar
    32    17    12    1
    33    31    26   ar
    34    15    18    1
    35    10    11    1
@<TRIPOS>MOLECULE
*****
 31 35 0 0 0
SMALL
GASTEIGER

@<TRIPOS>ATOM
      1 C          63.5120   86.9308   13.6651 C.3     1  UNL1        0.0749
      2 C          62.9110   87.3054   12.3428 C.3     1  UNL1        0.0444
      3 C          63.0105   88.7175   11.8469 C.ar    1  UNL1       -0.0101
      4 C          63.7110   89.7550   12.6733 C.ar    1  UNL1       -0.0091
      5 C          63.8105   91.1672   12.1773 C.ar    1  UNL1       -0.0032
      6 C          63.2095   91.5418   10.8551 C.ar    1  UNL1        0.0010
      7 C          62.5090   90.5043   10.0287 C.ar    1  UNL1        0.0142
      8 C          62.4095   89.0922   10.5246 C.ar    1  UNL1        0.0436
      9 C          64.3120   89.3804   13.9956 C.3     1  UNL1        0.0954
     10 N          64.2125   87.9683   14.4915 N.3     1  UNL1       -0.2934
     11 H          63.7297   88.0048   15.3892 H       1  UNL1        0.1236
     12 N          61.7090   88.0547    9.6982 N.pl3   1  UNL1       -0.3049
     13 C          62.4658   86.8627    9.1919 C.3     1  UNL1        0.1079
     14 C          61.7654   85.8251    8.3655 C.3     1  UNL1        0.0903
     15 N          60.3080   85.9797    8.0455 N.3     1  UNL1       -0.2946
     16 C          59.5513   87.1717    8.5518 C.3     1  UNL1        0.0903
     17 C          60.2517   88.2092    9.3781 C.3     1  UNL1        0.1079
     18 H          59.8365   85.1535    8.4135 H       1  UNL1        0.1233
     19 C          63.4125   85.5186   14.1610 C.3     1  UNL1        0.0886
     20 C          65.7469   84.4176   14.4582 C.3     1  UNL1        0.0899
     21 N          64.4325   84.5024   13.7405 N.3     1  UNL1       -0.2667
     22 C          64.1381   83.5709   12.6022 C.3     1  UNL1        0.0978
     23 C          64.5272   83.9490   11.2038 C.3     1  UNL1        0.0224
     24 C          64.2328   83.0175   10.0656 C.3     1  UNL1        0.0065
     25 C          63.5493   81.7079   10.3257 C.3     1  UNL1        0.0277
     26 C          63.1601   81.3297   11.7242 C.ar    1  UNL1       -0.0073
     27 C          62.4766   80.0201   11.9843 C.ar    1  UNL1       -0.0015
     28 C          62.0875   79.6421   13.3827 C.ar    1  UNL1        0.0203
     29 C          62.3819   80.5735   14.5210 C.ar    1  UNL1        0.0985
     30 N          63.0654   81.8831   14.2608 N.ar    1  UNL1       -0.2471
     31 C          63.4545   82.2612   12.8624 C.ar    1  UNL1        0.0695
@<TRIPOS>BOND
     1    20    21    1
     2    21    19    1
     3     1    19    1
     4     1     2    1
     5     2     3    1
     6     3     4   ar
     7     4     5   ar
     8     5     6   ar
     9     6     7   ar
    10     7     8   ar
    11     8    12    1
    12    12    13    1
    13    13    14    1
    14    14    15    1
    15    15    16    1
    16    16    17    1
    17     4     9    1
    18     9    10    1
    19    22    21    1
    20    22    23    1
    21    23    24    1
    22    24    25    1
    23    25    26    1
    24    26    27   ar
    25    27    28   ar
    26    28    29   ar
    27    29    30   ar
    28    30    31   ar
    29    10     1    1
    30    31    22    1
    31     8     3   ar
    32    17    12    1
    33    31    26   ar
    34    15    18    1
    35    10    11    1
@<TRIPOS>MOLECULE
*****
 31 35 0 0 0
SMALL
GASTEIGER

@<TRIPOS>ATOM
      1 C          63.5138   87.0130   13.5667 C.3     1  UNL1        0.0749
      2 C          63.8499   88.4748   13.5675 C.3     1  UNL1        0.0444
      3 C          63.4572   89.3352   12.4032 C.ar    1  UNL1       -0.0101
      4 C          62.7284   88.7338   11.2383 C.ar    1  UNL1       -0.0091
      5 C          62.3357   89.5943   10.0740 C.ar    1  UNL1       -0.0032
      6 C          62.6718   91.0561   10.0748 C.ar    1  UNL1        0.0010
      7 C          63.4007   91.6575   11.2397 C.ar    1  UNL1        0.0142
      8 C          63.7934   90.7971   12.4039 C.ar    1  UNL1        0.0436
      9 C          62.3922   87.2720   11.2376 C.3     1  UNL1        0.0954
     10 N          62.7849   86.4116   12.4018 N.3     1  UNL1       -0.2934
     11 H          63.3806   85.6705   12.0325 H       1  UNL1        0.1236
     12 N          64.5222   91.3986   13.5688 N.pl3   1  UNL1       -0.3049
     13 C          63.9788   91.2374   14.9577 C.3     1  UNL1        0.1079
     14 C          64.7077   91.8388   16.1227 C.3     1  UNL1        0.0903
     15 N          65.9799   92.6014   15.8987 N.3     1  UNL1       -0.2946
     16 C          66.5232   92.7625   14.5099 C.3     1  UNL1        0.0903
     17 C          65.7944   92.1611   13.3450 C.3     1  UNL1        0.1079
     18 H          66.7033   92.1343   16.4456 H       1  UNL1        0.1233
     19 C          63.9065   86.1525   14.7310 C.3     1  UNL1        0.0886
     20 C          65.9897   84.6043   14.6164 C.3     1  UNL1        0.0899
     21 N          64.5074   84.7988   14.4941 N.3     1  UNL1       -0.2667
     22 C          63.6260   83.6394   14.1348 C.3     1  UNL1        0.0978
     23 C          62.6886   83.0654   15.1554 C.3     1  UNL1        0.0224
     24 C          61.8072   81.9061   14.7962 C.3     1  UNL1        0.0065
     25 C          61.8632   81.3207   13.4163 C.3     1  UNL1        0.0277
     26 C          62.8007   81.8947   12.3956 C.ar    1  UNL1       -0.0073
     27 C          62.8568   81.3093   11.0157 C.ar    1  UNL1       -0.0015
     28 C          63.7942   81.8833    9.9950 C.ar    1  UNL1        0.0203
     29 C          64.6756   83.0426   10.3543 C.ar    1  UNL1        0.0985
     30 N          64.6195   83.6280   11.7342 N.ar    1  UNL1       -0.2471
     31 C          63.6821   83.0540   12.7548 C.ar    1  UNL1        0.0695
@<TRIPOS>BOND
     1    20    21    1
     2    21    19    1
     3     1    19    1
     4     1     2    1
     5     2     3    1
     6     3     4   ar
     7     4     5   ar
     8     5     6   ar
     9     6     7   ar
    10     7     8   ar
    11     8    12    1
    12    12    13    1
    13    13    14    1
    14    14    15    1
    15    15    16    1
    16    16    17    1
    17     4     9    1
    18     9    10    1
    19    22    21    1
    20    22    23    1
    21    23    24    1
    22    24    25    1
    23    25    26    1
    24    26    27   ar
    25    27    28   ar
    26    28    29   ar
    27    29    30   ar
    28    30    31   ar
    29    10     1    1
    30    31    22    1
    31     8     3   ar
    32    17    12    1
    33    31    26   ar
    34    15    18    1
    35    10    11    1
