@<TRIPOS>MOLECULE
*****
 29 31 0 0 0
SMALL
GASTEIGER

@<TRIPOS>ATOM
      1 C          62.9859   89.3339   12.3126 C.3     1  UNL1        0.0391
      2 C          63.3518   88.0461   12.9891 C.3     1  UNL1        0.1429
      3 O          63.0246   86.9211   12.0524 O.3     1  UNL1       -0.3518
      4 C          62.4566   87.5137   10.7970 C.3     1  UNL1        0.1399
      5 C          62.4327   89.0048   10.9578 C.3     1  UNL1        0.0635
      6 C          61.9937   86.7493    9.5922 C.ar    1  UNL1        0.0078
      7 C          62.9464   85.8480    8.8641 C.ar    1  UNL1        0.0014
      8 C          62.4836   85.0837    7.6594 C.ar    1  UNL1        0.0395
      9 C          61.0680   85.2205    7.1827 C.ar    1  UNL1        0.1675
     10 O          60.6050   84.4562    5.9779 O.3     1  UNL1       -0.5029
     11 C          60.1152   86.1218    7.9107 C.ar    1  UNL1        0.1672
     12 O          58.6995   86.2587    7.4339 O.3     1  UNL1       -0.5029
     13 C          60.5781   86.8862    9.1155 C.ar    1  UNL1        0.0378
     14 H          61.2001   83.8932    5.5231 H       1  UNL1        0.2923
     15 H          58.4104   85.7812    6.6814 H       1  UNL1        0.2923
     16 C          61.9417   89.9934    9.9421 C.3     1  UNL1        0.1399
     17 O          60.4993   90.4050    9.9322 O.3     1  UNL1       -0.3819
     18 H          59.9472   89.6430    9.6969 H       1  UNL1        0.2104
     19 C          63.1453   90.7093   12.8897 C.3     1  UNL1        0.0291
     20 C          66.5287   92.7612   12.5850 C.ar    1  UNL1        0.1718
     21 C          65.1597   92.2313   12.2766 C.ar    1  UNL1        0.0358
     22 C          64.5144   91.2391   13.1981 C.ar    1  UNL1       -0.0189
     23 C          65.2380   90.7768   14.4280 C.ar    1  UNL1       -0.0010
     24 C          66.6069   91.3067   14.7364 C.ar    1  UNL1        0.0395
     25 C          67.2523   92.2989   13.8149 C.ar    1  UNL1        0.1677
     26 O          68.6213   92.8288   14.1233 O.3     1  UNL1       -0.5029
     27 H          69.0733   92.5400   14.8916 H       1  UNL1        0.2923
     28 C          66.3727   94.8939   11.1095 C.3     1  UNL1        0.2526
     29 O          67.1740   93.7534   11.6636 O.3     1  UNL1       -0.4684
@<TRIPOS>BOND
     1    28    29    1
     2    29    20    1
     3    20    21   ar
     4    21    22   ar
     5    22    19    1
     6     1    19    1
     7     1     2    1
     8     2     3    1
     9     3     4    1
    10     4     6    1
    11     6     7   ar
    12     7     8   ar
    13     8     9   ar
    14     9    10    1
    15     9    11   ar
    16    11    12    1
    17    11    13   ar
    18     4     5    1
    19     5    16    1
    20    16    17    1
    21    22    23   ar
    22    23    24   ar
    23    24    25   ar
    24    25    26    1
    25    25    20   ar
    26     5     1    1
    27    13     6   ar
    28    10    14    1
    29    12    15    1
    30    17    18    1
    31    26    27    1
@<TRIPOS>MOLECULE
*****
 29 31 0 0 0
SMALL
GASTEIGER

@<TRIPOS>ATOM
      1 C          63.8369   88.3018   13.6180 C.3     1  UNL1        0.0391
      2 C          63.0769   88.4762   12.3367 C.3     1  UNL1        0.1429
      3 O          62.7151   87.1141   11.8231 O.3     1  UNL1       -0.3518
      4 C          63.2516   86.0978   12.7871 C.3     1  UNL1        0.1399
      5 C          63.9449   86.8318   13.8964 C.3     1  UNL1        0.0635
      6 C          63.1182   84.6088   12.6636 C.ar    1  UNL1        0.0078
      7 C          63.4692   83.9288   11.3734 C.ar    1  UNL1        0.0014
      8 C          63.3358   82.4399   11.2499 C.ar    1  UNL1        0.0395
      9 C          62.8514   81.6310   12.4165 C.ar    1  UNL1        0.1675
     10 O          62.7180   80.1420   12.2930 O.3     1  UNL1       -0.5029
     11 C          62.5005   82.3110   13.7066 C.ar    1  UNL1        0.1672
     12 O          62.0161   81.5019   14.8733 O.3     1  UNL1       -0.5029
     13 C          62.6338   83.7999   13.8302 C.ar    1  UNL1        0.0378
     14 H          62.9373   79.7172   11.4872 H       1  UNL1        0.2923
     15 H          61.9327   80.5718   14.7961 H       1  UNL1        0.2923
     16 C          64.6265   86.2058   15.0769 C.3     1  UNL1        0.1399
     17 O          65.7529   85.2378   14.8663 O.3     1  UNL1       -0.3819
     18 H          65.4157   84.4390   14.4313 H       1  UNL1        0.2104
     19 C          64.3916   89.4038   14.4712 C.3     1  UNL1        0.0291
     20 C          66.8835   92.4035   13.7343 C.ar    1  UNL1        0.1718
     21 C          66.2732   91.1929   14.3762 C.ar    1  UNL1        0.0358
     22 C          65.0019   90.6145   13.8292 C.ar    1  UNL1       -0.0189
     23 C          64.3408   91.2466   12.6404 C.ar    1  UNL1       -0.0010
     24 C          64.9511   92.4572   11.9985 C.ar    1  UNL1        0.0395
     25 C          66.2224   93.0356   12.5455 C.ar    1  UNL1        0.1677
     26 O          66.8327   94.2462   11.9035 O.3     1  UNL1       -0.5029
     27 H          66.4198   94.6411   11.1609 H       1  UNL1        0.2923
     28 C          68.2067   93.4737   15.6974 C.3     1  UNL1        0.2526
     29 O          68.1548   92.9819   14.2813 O.3     1  UNL1       -0.4684
@<TRIPOS>BOND
     1    28    29    1
     2    29    20    1
     3    20    21   ar
     4    21    22   ar
     5    22    19    1
     6     1    19    1
     7     1     2    1
     8     2     3    1
     9     3     4    1
    10     4     6    1
    11     6     7   ar
    12     7     8   ar
    13     8     9   ar
    14     9    10    1
    15     9    11   ar
    16    11    12    1
    17    11    13   ar
    18     4     5    1
    19     5    16    1
    20    16    17    1
    21    22    23   ar
    22    23    24   ar
    23    24    25   ar
    24    25    26    1
    25    25    20   ar
    26     5     1    1
    27    13     6   ar
    28    10    14    1
    29    12    15    1
    30    17    18    1
    31    26    27    1
@<TRIPOS>MOLECULE
*****
 29 31 0 0 0
SMALL
GASTEIGER

@<TRIPOS>ATOM
      1 C          63.0896   90.7632   11.6418 C.3     1  UNL1        0.0391
      2 C          62.6965   89.9686   12.8518 C.3     1  UNL1        0.1429
      3 O          63.7116   90.2266   13.9257 O.3     1  UNL1       -0.3518
      4 C          64.7320   91.1807   13.3793 C.3     1  UNL1        0.1399
      5 C          64.3476   91.5123   11.9678 C.3     1  UNL1        0.0635
      6 C          65.9270   91.7102   14.1152 C.ar    1  UNL1        0.0078
      7 C          65.7604   92.3209   15.4751 C.ar    1  UNL1        0.0014
      8 C          66.9554   92.8504   16.2110 C.ar    1  UNL1        0.0395
      9 C          68.3170   92.7692   15.5870 C.ar    1  UNL1        0.1675
     10 O          69.5121   93.2987   16.3229 O.3     1  UNL1       -0.5029
     11 C          68.4836   92.1585   14.2271 C.ar    1  UNL1        0.1672
     12 O          69.8453   92.0773   13.6031 O.3     1  UNL1       -0.5029
     13 C          67.2886   91.6290   13.4912 C.ar    1  UNL1        0.0378
     14 H          69.4081   93.6802   17.1723 H       1  UNL1        0.2923
     15 H          70.5918   92.4081   14.0628 H       1  UNL1        0.2923
     16 C          65.0907   92.4316   11.0445 C.3     1  UNL1        0.1399
     17 O          65.3887   93.8396   11.4675 O.3     1  UNL1       -0.3819
     18 H          64.5584   94.3335   11.5546 H       1  UNL1        0.2104
     19 C          62.3539   90.8019   10.3352 C.3     1  UNL1        0.0291
     20 C          61.7535   86.9754    9.4705 C.ar    1  UNL1        0.1718
     21 C          62.3826   88.2238   10.0142 C.ar    1  UNL1        0.0358
     22 C          61.7248   89.5534    9.7915 C.ar    1  UNL1       -0.0189
     23 C          60.4380   89.6345    9.0250 C.ar    1  UNL1       -0.0010
     24 C          59.8089   88.3860    8.4813 C.ar    1  UNL1        0.0395
     25 C          60.4667   87.0565    8.7041 C.ar    1  UNL1        0.1677
     26 O          59.8376   85.8080    8.1603 O.3     1  UNL1       -0.5029
     27 H          59.0338   85.8587    7.6816 H       1  UNL1        0.2923
     28 C          62.3882   85.0163   11.0546 C.3     1  UNL1        0.2526
     29 O          62.4113   85.6458    9.6933 O.3     1  UNL1       -0.4684
@<TRIPOS>BOND
     1    28    29    1
     2    29    20    1
     3    20    21   ar
     4    21    22   ar
     5    22    19    1
     6     1    19    1
     7     1     2    1
     8     2     3    1
     9     3     4    1
    10     4     6    1
    11     6     7   ar
    12     7     8   ar
    13     8     9   ar
    14     9    10    1
    15     9    11   ar
    16    11    12    1
    17    11    13   ar
    18     4     5    1
    19     5    16    1
    20    16    17    1
    21    22    23   ar
    22    23    24   ar
    23    24    25   ar
    24    25    26    1
    25    25    20   ar
    26     5     1    1
    27    13     6   ar
    28    10    14    1
    29    12    15    1
    30    17    18    1
    31    26    27    1
@<TRIPOS>MOLECULE
*****
 29 31 0 0 0
SMALL
GASTEIGER

@<TRIPOS>ATOM
      1 C          62.7685   90.3317   12.0241 C.3     1  UNL1        0.0391
      2 C          63.2707   91.2440   10.9445 C.3     1  UNL1        0.1429
      3 O          64.5185   91.9101   11.4437 O.3     1  UNL1       -0.3518
      4 C          64.7876   91.4095   12.8318 C.3     1  UNL1        0.1399
      5 C          63.7061   90.4340   13.1905 C.3     1  UNL1        0.0635
      6 C          65.9365   91.8135   13.7076 C.ar    1  UNL1        0.0078
      7 C          65.6806   92.3035   15.1020 C.ar    1  UNL1        0.0014
      8 C          66.8294   92.7075   15.9777 C.ar    1  UNL1        0.0395
      9 C          68.2342   92.6214   15.4590 C.ar    1  UNL1        0.1675
     10 O          69.3832   93.0253   16.3346 O.3     1  UNL1       -0.5029
     11 C          68.4902   92.1314   14.0645 C.ar    1  UNL1        0.1672
     12 O          69.8951   92.0453   13.5458 O.3     1  UNL1       -0.5029
     13 C          67.3413   91.7274   13.1888 C.ar    1  UNL1        0.0378
     14 H          69.2234   93.3314   17.2057 H       1  UNL1        0.2923
     15 H          70.6127   92.2977   14.0929 H       1  UNL1        0.2923
     16 C          63.5836   89.6912   14.4880 C.3     1  UNL1        0.1399
     17 O          62.3443   89.8353   15.3207 O.3     1  UNL1       -0.3819
     18 H          62.2790   90.7460   15.6484 H       1  UNL1        0.2104
     19 C          61.5439   89.4687   11.9502 C.3     1  UNL1        0.0291
     20 C          60.2061   87.8617    8.5771 C.ar    1  UNL1        0.1718
     21 C          60.3821   88.8178    9.7194 C.ar    1  UNL1        0.0358
     22 C          61.3680   88.5125   10.8079 C.ar    1  UNL1       -0.0189
     23 C          62.1780   87.2512   10.7540 C.ar    1  UNL1       -0.0010
     24 C          62.0021   86.2952    9.6117 C.ar    1  UNL1        0.0395
     25 C          61.0161   86.6004    8.5232 C.ar    1  UNL1        0.1677
     26 O          60.8402   85.6443    7.3809 O.3     1  UNL1       -0.5029
     27 H          61.3462   84.8563    7.3472 H       1  UNL1        0.2923
     28 C          59.3522   89.4294    6.6896 C.3     1  UNL1        0.2526
     29 O          59.2202   88.1669    7.4886 O.3     1  UNL1       -0.4684
@<TRIPOS>BOND
     1    28    29    1
     2    29    20    1
     3    20    21   ar
     4    21    22   ar
     5    22    19    1
     6     1    19    1
     7     1     2    1
     8     2     3    1
     9     3     4    1
    10     4     6    1
    11     6     7   ar
    12     7     8   ar
    13     8     9   ar
    14     9    10    1
    15     9    11   ar
    16    11    12    1
    17    11    13   ar
    18     4     5    1
    19     5    16    1
    20    16    17    1
    21    22    23   ar
    22    23    24   ar
    23    24    25   ar
    24    25    26    1
    25    25    20   ar
    26     5     1    1
    27    13     6   ar
    28    10    14    1
    29    12    15    1
    30    17    18    1
    31    26    27    1
@<TRIPOS>MOLECULE
*****
 29 31 0 0 0
SMALL
GASTEIGER

@<TRIPOS>ATOM
      1 C          61.7882   88.6049   11.0790 C.3     1  UNL1        0.0391
      2 C          61.3913   89.7867   10.2450 C.3     1  UNL1        0.1429
      3 O          62.2838   90.9347   10.6132 O.3     1  UNL1       -0.3518
      4 C          63.2324   90.4623   11.6749 C.3     1  UNL1        0.1399
      5 C          62.9260   89.0224   11.9628 C.3     1  UNL1        0.0635
      6 C          64.2998   91.2853   12.3331 C.ar    1  UNL1        0.0078
      7 C          64.5679   91.1307   13.8008 C.ar    1  UNL1        0.0014
      8 C          65.6354   91.9537   14.4590 C.ar    1  UNL1        0.0395
      9 C          66.4347   92.9313   13.6495 C.ar    1  UNL1        0.1675
     10 O          67.5022   93.7544   14.3076 O.3     1  UNL1       -0.5029
     11 C          66.1665   93.0859   12.1818 C.ar    1  UNL1        0.1672
     12 O          66.9659   94.0636   11.3722 O.3     1  UNL1       -0.5029
     13 C          65.0991   92.2629   11.5236 C.ar    1  UNL1        0.0378
     14 H          67.6697   93.6578   15.2244 H       1  UNL1        0.2923
     15 H          67.6327   94.5777   11.7834 H       1  UNL1        0.2923
     16 C          63.6334   88.1528   12.9594 C.3     1  UNL1        0.1399
     17 O          63.5190   88.4466   14.4259 O.3     1  UNL1       -0.3819
     18 H          63.9459   89.2958   14.6198 H       1  UNL1        0.2104
     19 C          61.1579   87.2444   11.0368 C.3     1  UNL1        0.0291
     20 C          63.1603   83.8785   11.6782 C.ar    1  UNL1        0.1718
     21 C          62.3115   85.0910   11.9214 C.ar    1  UNL1        0.0358
     22 C          62.0068   86.0318   10.7935 C.ar    1  UNL1       -0.0189
     23 C          62.5509   85.7600    9.4224 C.ar    1  UNL1       -0.0010
     24 C          63.3998   84.5475    9.1792 C.ar    1  UNL1        0.0395
     25 C          63.7044   83.6067   10.3071 C.ar    1  UNL1        0.1677
     26 O          64.5533   82.3941   10.0639 O.3     1  UNL1       -0.5029
     27 H          64.8932   82.2243    9.2073 H       1  UNL1        0.2923
     28 C          62.4978   81.8451   13.1535 C.3     1  UNL1        0.2526
     29 O          63.4650   82.9377   12.8061 O.3     1  UNL1       -0.4684
@<TRIPOS>BOND
     1    28    29    1
     2    29    20    1
     3    20    21   ar
     4    21    22   ar
     5    22    19    1
     6     1    19    1
     7     1     2    1
     8     2     3    1
     9     3     4    1
    10     4     6    1
    11     6     7   ar
    12     7     8   ar
    13     8     9   ar
    14     9    10    1
    15     9    11   ar
    16    11    12    1
    17    11    13   ar
    18     4     5    1
    19     5    16    1
    20    16    17    1
    21    22    23   ar
    22    23    24   ar
    23    24    25   ar
    24    25    26    1
    25    25    20   ar
    26     5     1    1
    27    13     6   ar
    28    10    14    1
    29    12    15    1
    30    17    18    1
    31    26    27    1
@<TRIPOS>MOLECULE
*****
 29 31 0 0 0
SMALL
GASTEIGER

@<TRIPOS>ATOM
      1 C          63.2754   88.7996   12.8823 C.3     1  UNL1        0.0391
      2 C          64.1403   88.5087   14.0728 C.3     1  UNL1        0.1429
      3 O          64.2456   87.0193   14.2165 O.3     1  UNL1       -0.3518
      4 C          63.4458   86.3897   13.1147 C.3     1  UNL1        0.1399
      5 C          62.8462   87.4900   12.2901 C.3     1  UNL1        0.0635
      6 C          63.2755   84.9182   12.8790 C.ar    1  UNL1        0.0078
      7 C          63.5812   84.3341   11.5316 C.ar    1  UNL1        0.0014
      8 C          63.4109   82.8626   11.2958 C.ar    1  UNL1        0.0395
      9 C          62.9348   81.9751   12.4074 C.ar    1  UNL1        0.1675
     10 O          62.7644   80.5036   12.1717 O.3     1  UNL1       -0.5029
     11 C          62.6290   82.5592   13.7548 C.ar    1  UNL1        0.1672
     12 O          62.1529   81.6716   14.8664 O.3     1  UNL1       -0.5029
     13 C          62.7994   84.0307   13.9906 C.ar    1  UNL1        0.0378
     14 H          62.9554   80.1387   11.3301 H       1  UNL1        0.2923
     15 H          62.0465   80.7524   14.7191 H       1  UNL1        0.2923
     16 C          61.9711   87.3118   11.0850 C.3     1  UNL1        0.1399
     17 O          60.4973   87.0897   11.2544 O.3     1  UNL1       -0.3819
     18 H          60.3470   86.2369   11.6915 H       1  UNL1        0.2104
     19 C          62.9049   90.1611   12.3732 C.3     1  UNL1        0.0291
     20 C          65.8447   92.7496   13.0115 C.ar    1  UNL1        0.1718
     21 C          64.7767   91.7271   13.2643 C.ar    1  UNL1        0.0358
     22 C          63.9729   91.1835   12.1204 C.ar    1  UNL1       -0.0189
     23 C          64.2372   91.6624   10.7237 C.ar    1  UNL1       -0.0010
     24 C          65.3052   92.6848   10.4709 C.ar    1  UNL1        0.0395
     25 C          66.1090   93.2284   11.6148 C.ar    1  UNL1        0.1677
     26 O          67.1770   94.2509   11.3620 O.3     1  UNL1       -0.5029
     27 H          67.3421   94.5500   10.4895 H       1  UNL1        0.2923
     28 C          66.5240   92.6788   15.5182 C.3     1  UNL1        0.2526
     29 O          66.6484   93.2931   14.1554 O.3     1  UNL1       -0.4684
@<TRIPOS>BOND
     1    28    29    1
     2    29    20    1
     3    20    21   ar
     4    21    22   ar
     5    22    19    1
     6     1    19    1
     7     1     2    1
     8     2     3    1
     9     3     4    1
    10     4     6    1
    11     6     7   ar
    12     7     8   ar
    13     8     9   ar
    14     9    10    1
    15     9    11   ar
    16    11    12    1
    17    11    13   ar
    18     4     5    1
    19     5    16    1
    20    16    17    1
    21    22    23   ar
    22    23    24   ar
    23    24    25   ar
    24    25    26    1
    25    25    20   ar
    26     5     1    1
    27    13     6   ar
    28    10    14    1
    29    12    15    1
    30    17    18    1
    31    26    27    1
@<TRIPOS>MOLECULE
*****
 29 31 0 0 0
SMALL
GASTEIGER

@<TRIPOS>ATOM
      1 C          63.7247   88.1415   13.4447 C.3     1  UNL1        0.0391
      2 C          64.5054   87.7055   14.6490 C.3     1  UNL1        0.1429
      3 O          64.4939   86.2061   14.6910 O.3     1  UNL1       -0.3518
      4 C          63.7061   85.7154   13.5126 C.3     1  UNL1        0.1399
      5 C          63.2307   86.9116   12.7424 C.3     1  UNL1        0.0635
      6 C          63.4403   84.2806   13.1655 C.ar    1  UNL1        0.0078
      7 C          63.9273   83.7218   11.8613 C.ar    1  UNL1        0.0014
      8 C          63.6615   82.2870   11.5142 C.ar    1  UNL1        0.0395
      9 C          62.9088   81.4109   12.4711 C.ar    1  UNL1        0.1675
     10 O          62.6429   79.9760   12.1241 O.3     1  UNL1       -0.5029
     11 C          62.4218   81.9696   13.7753 C.ar    1  UNL1        0.1672
     12 O          61.6691   81.0934   14.7322 O.3     1  UNL1       -0.5029
     13 C          62.6876   83.4045   14.1224 C.ar    1  UNL1        0.0378
     14 H          62.9471   79.6269   11.3094 H       1  UNL1        0.2923
     15 H          61.5031   80.1971   14.5154 H       1  UNL1        0.2923
     16 C          62.4061   86.8828   11.4897 C.3     1  UNL1        0.1399
     17 O          60.9152   86.7420   11.5761 O.3     1  UNL1       -0.3819
     18 H          60.6932   85.8693   11.9366 H       1  UNL1        0.2104
     19 C          63.4808   89.5586   13.0176 C.3     1  UNL1        0.0291
     20 C          66.0183   92.6100   13.0264 C.ar    1  UNL1        0.1718
     21 C          65.1223   91.5131   12.5325 C.ar    1  UNL1        0.0358
     22 C          64.3768   90.6555   13.5116 C.ar    1  UNL1       -0.0189
     23 C          64.5273   90.8948   14.9847 C.ar    1  UNL1       -0.0010
     24 C          65.4232   91.9917   15.4787 C.ar    1  UNL1        0.0395
     25 C          66.1687   92.8493   14.4995 C.ar    1  UNL1        0.1677
     26 O          67.0647   93.9463   14.9935 O.3     1  UNL1       -0.5029
     27 H          67.1587   94.0958   15.9137 H       1  UNL1        0.2923
     28 C          66.2012   94.7948   11.6324 C.3     1  UNL1        0.2526
     29 O          66.7638   93.4676   12.0472 O.3     1  UNL1       -0.4684
@<TRIPOS>BOND
     1    28    29    1
     2    29    20    1
     3    20    21   ar
     4    21    22   ar
     5    22    19    1
     6     1    19    1
     7     1     2    1
     8     2     3    1
     9     3     4    1
    10     4     6    1
    11     6     7   ar
    12     7     8   ar
    13     8     9   ar
    14     9    10    1
    15     9    11   ar
    16    11    12    1
    17    11    13   ar
    18     4     5    1
    19     5    16    1
    20    16    17    1
    21    22    23   ar
    22    23    24   ar
    23    24    25   ar
    24    25    26    1
    25    25    20   ar
    26     5     1    1
    27    13     6   ar
    28    10    14    1
    29    12    15    1
    30    17    18    1
    31    26    27    1
@<TRIPOS>MOLECULE
*****
 29 31 0 0 0
SMALL
GASTEIGER

@<TRIPOS>ATOM
      1 C          63.9172   88.1085   13.7738 C.3     1  UNL1        0.0391
      2 C          63.1441   88.3360   12.5087 C.3     1  UNL1        0.1429
      3 O          62.7611   86.9967   11.9523 O.3     1  UNL1       -0.3518
      4 C          63.2975   85.9414   12.8735 C.3     1  UNL1        0.1399
      5 C          64.0120   86.6286   13.9993 C.3     1  UNL1        0.0635
      6 C          63.1461   84.4593   12.6996 C.ar    1  UNL1        0.0078
      7 C          63.5287   83.8135   11.4009 C.ar    1  UNL1        0.0014
      8 C          63.3772   82.3314   11.2269 C.ar    1  UNL1        0.0395
      9 C          62.8431   81.4950   12.3517 C.ar    1  UNL1        0.1675
     10 O          62.6916   80.0128   12.1779 O.3     1  UNL1       -0.5029
     11 C          62.4605   82.1407   13.6504 C.ar    1  UNL1        0.1672
     12 O          61.9263   81.3042   14.7752 O.3     1  UNL1       -0.5029
     13 C          62.6119   83.6229   13.8244 C.ar    1  UNL1        0.0378
     14 H          62.9306   79.6093   11.3667 H       1  UNL1        0.2923
     15 H          61.8317   80.3784   14.6666 H       1  UNL1        0.2923
     16 C          64.7005   85.9542   15.1487 C.3     1  UNL1        0.1399
     17 O          65.8050   84.9727   14.8903 O.3     1  UNL1       -0.3819
     18 H          65.4460   84.1940   14.4367 H       1  UNL1        0.2104
     19 C          64.4942   89.1739   14.6582 C.3     1  UNL1        0.0291
     20 C          65.0583   92.1448   12.0882 C.ar    1  UNL1        0.1718
     21 C          64.5552   90.8647   12.6865 C.ar    1  UNL1        0.0358
     22 C          64.9974   90.4540   14.0598 C.ar    1  UNL1       -0.0189
     23 C          65.9427   91.3235   14.8347 C.ar    1  UNL1       -0.0010
     24 C          66.4458   92.6036   14.2363 C.ar    1  UNL1        0.0395
     25 C          66.0036   93.0143   12.8630 C.ar    1  UNL1        0.1677
     26 O          66.5068   94.2945   12.2646 O.3     1  UNL1       -0.5029
     27 H          67.0973   94.8376   12.7487 H       1  UNL1        0.2923
     28 C          63.5372   91.7856   10.0128 C.3     1  UNL1        0.2526
     29 O          64.6162   92.5555   10.7149 O.3     1  UNL1       -0.4684
@<TRIPOS>BOND
     1    28    29    1
     2    29    20    1
     3    20    21   ar
     4    21    22   ar
     5    22    19    1
     6     1    19    1
     7     1     2    1
     8     2     3    1
     9     3     4    1
    10     4     6    1
    11     6     7   ar
    12     7     8   ar
    13     8     9   ar
    14     9    10    1
    15     9    11   ar
    16    11    12    1
    17    11    13   ar
    18     4     5    1
    19     5    16    1
    20    16    17    1
    21    22    23   ar
    22    23    24   ar
    23    24    25   ar
    24    25    26    1
    25    25    20   ar
    26     5     1    1
    27    13     6   ar
    28    10    14    1
    29    12    15    1
    30    17    18    1
    31    26    27    1
@<TRIPOS>MOLECULE
*****
 29 31 0 0 0
SMALL
GASTEIGER

@<TRIPOS>ATOM
      1 C          62.8091   88.1887   11.8910 C.3     1  UNL1        0.0391
      2 C          62.5006   89.3765   11.0284 C.3     1  UNL1        0.1429
      3 O          63.1953   90.5691   11.6160 O.3     1  UNL1       -0.3518
      4 C          63.9332   90.1183   12.8417 C.3     1  UNL1        0.1399
      5 C          63.6945   88.6472   13.0116 C.3     1  UNL1        0.0635
      6 C          64.7639   90.9863   13.7397 C.ar    1  UNL1        0.0078
      7 C          66.0943   91.4954   13.2697 C.ar    1  UNL1        0.0014
      8 C          66.9251   92.3634   14.1678 C.ar    1  UNL1        0.0395
      9 C          66.4254   92.7222   15.5359 C.ar    1  UNL1        0.1675
     10 O          67.2561   93.5901   16.4340 O.3     1  UNL1       -0.5029
     11 C          65.0950   92.2130   16.0058 C.ar    1  UNL1        0.1672
     12 O          64.5954   92.5719   17.3740 O.3     1  UNL1       -0.5029
     13 C          64.2643   91.3451   15.1078 C.ar    1  UNL1        0.0378
     14 H          68.0871   93.9082   16.1405 H       1  UNL1        0.2923
     15 H          65.1143   93.1141   17.9350 H       1  UNL1        0.2923
     16 C          64.2447   87.7859   14.1095 C.3     1  UNL1        0.1399
     17 O          63.6317   87.8319   15.4777 O.3     1  UNL1       -0.3819
     18 H          63.7793   88.7072   15.8689 H       1  UNL1        0.2104
     19 C          62.3184   86.7884   11.6714 C.3     1  UNL1        0.0291
     20 C          60.4807   86.2587    8.1940 C.ar    1  UNL1        0.1718
     21 C          60.7726   86.7419    9.5837 C.ar    1  UNL1        0.0358
     22 C          62.0265   86.3052   10.2817 C.ar    1  UNL1       -0.0189
     23 C          62.9884   85.3854    9.5899 C.ar    1  UNL1       -0.0010
     24 C          62.6965   84.9022    8.2002 C.ar    1  UNL1        0.0395
     25 C          61.4426   85.3389    7.5023 C.ar    1  UNL1        0.1677
     26 O          61.1507   84.8557    6.1125 O.3     1  UNL1       -0.5029
     27 H          61.7516   84.2811    5.6804 H       1  UNL1        0.2923
     28 C          58.9066   88.1556    7.3732 C.3     1  UNL1        0.2526
     29 O          59.2268   86.6954    7.4961 O.3     1  UNL1       -0.4684
@<TRIPOS>BOND
     1    28    29    1
     2    29    20    1
     3    20    21   ar
     4    21    22   ar
     5    22    19    1
     6     1    19    1
     7     1     2    1
     8     2     3    1
     9     3     4    1
    10     4     6    1
    11     6     7   ar
    12     7     8   ar
    13     8     9   ar
    14     9    10    1
    15     9    11   ar
    16    11    12    1
    17    11    13   ar
    18     4     5    1
    19     5    16    1
    20    16    17    1
    21    22    23   ar
    22    23    24   ar
    23    24    25   ar
    24    25    26    1
    25    25    20   ar
    26     5     1    1
    27    13     6   ar
    28    10    14    1
    29    12    15    1
    30    17    18    1
    31    26    27    1
