@<TRIPOS>MOLECULE
*****
 28 31 0 0 0
SMALL
GASTEIGER

@<TRIPOS>ATOM
      1 C          62.8663   86.5375   11.8584 C.3     1  UNL1        0.1272
      2 C          63.2610   87.8132   12.5416 C.2     1  UNL1        0.0260
      3 C          63.1931   89.3090   12.4522 C.2     1  UNL1        0.0757
      4 N          63.8997   89.8773   13.6471 N.2     1  UNL1       -0.1569
      5 N          64.4043   88.7328   14.4750 N.2     1  UNL1       -0.1631
      6 C          64.0096   87.4571   13.7917 C.3     1  UNL1        0.2225
      7 C          64.0776   85.9613   13.8812 C.2     1  UNL1        0.2581
      8 O          64.7365   85.1724   14.9736 O.2     1  UNL1       -0.2720
      9 N          63.3710   85.3929   12.6863 N.am    1  UNL1       -0.2508
     10 C          63.1992   83.9359   12.3741 C.ar    1  UNL1        0.0546
     11 C          62.4008   83.0608   13.2942 C.ar    1  UNL1        0.0172
     12 C          62.2290   81.6037   12.9820 C.ar    1  UNL1        0.0309
     13 C          62.8556   81.0217   11.7497 C.ar    1  UNL1        0.1402
     14 F          62.6839   79.5647   11.4375 F       1  UNL1       -0.2042
     15 C          63.6542   81.8969   10.8296 C.ar    1  UNL1        0.0309
     16 C          63.8259   83.3539   11.1417 C.ar    1  UNL1        0.0172
     17 C          60.7116   86.9821   10.4766 C.ar    1  UNL1        0.1366
     18 C          59.9465   86.8705    9.1911 C.ar    1  UNL1        0.0366
     19 C          60.5712   86.2026    8.0021 C.ar    1  UNL1        0.0031
     20 C          61.9610   85.6464    8.0986 C.ar    1  UNL1       -0.0001
     21 C          62.7260   85.7580    9.3840 C.ar    1  UNL1        0.0007
     22 C          62.1013   86.4259   10.5730 C.ar    1  UNL1        0.0340
     23 C          59.0784   88.7427   11.4681 C.3     1  UNL1        0.2525
     24 O          60.0869   87.6500   11.6656 O.3     1  UNL1       -0.4717
     25 C          62.5342   90.0979   11.3598 C.3     1  UNL1        0.0367
     26 C          61.5220   90.6110   12.3407 C.3     1  UNL1        0.0060
     27 C          63.5463   89.5848   10.3788 C.3     1  UNL1        0.0060
     28 C          61.8753   90.8868   10.2673 C.3     1  UNL1        0.0060
@<TRIPOS>BOND
     1    23    24    1
     2    24    17    1
     3    17    18   ar
     4    18    19   ar
     5    19    20   ar
     6    20    21   ar
     7    21    22   ar
     8    22     1    1
     9     1     2    1
    10     2     3    2
    11     3    25    1
    12    25    26    1
    13    25    27    1
    14    25    28    1
    15     3     4    1
    16     4     5    2
    17     5     6    1
    18     6     7    1
    19     7     8    2
    20     7     9   am
    21     9    10    1
    22    10    11   ar
    23    11    12   ar
    24    12    13   ar
    25    13    14    1
    26    13    15   ar
    27    15    16   ar
    28    22    17   ar
    29     9     1    1
    30    16    10   ar
    31     6     2    1
@<TRIPOS>MOLECULE
*****
 28 31 0 0 0
SMALL
GASTEIGER

@<TRIPOS>ATOM
      1 C          64.1492   90.5800   12.8069 C.3     1  UNL1        0.1272
      2 C          63.3302   90.6008   11.5504 C.2     1  UNL1        0.0260
      3 C          62.1937   89.9364   10.8315 C.2     1  UNL1        0.0757
      4 N          62.0051   90.6346    9.5174 N.2     1  UNL1       -0.1569
      5 N          63.0252   91.7304    9.4240 N.2     1  UNL1       -0.1631
      6 C          63.8441   91.7096   10.6806 C.3     1  UNL1        0.2225
      7 C          64.9807   92.3740   11.3995 C.2     1  UNL1        0.2581
      8 O          65.7871   93.5330   10.8931 O.2     1  UNL1       -0.2720
      9 N          65.1693   91.6758   12.7137 N.am    1  UNL1       -0.2508
     10 C          66.1973   92.0141   13.7522 C.ar    1  UNL1        0.0546
     11 C          66.9729   90.9201   14.4241 C.ar    1  UNL1        0.0172
     12 C          68.0010   91.2583   15.4627 C.ar    1  UNL1        0.0309
     13 C          68.2535   92.6907   15.8293 C.ar    1  UNL1        0.1402
     14 F          69.2816   93.0291   16.8679 F       1  UNL1       -0.2042
     15 C          67.4779   93.7849   15.1574 C.ar    1  UNL1        0.0309
     16 C          66.4499   93.4466   14.1189 C.ar    1  UNL1        0.0172
     17 C          63.6190   90.1533   15.3143 C.ar    1  UNL1        0.1366
     18 C          63.4480   89.2033   16.4626 C.ar    1  UNL1        0.0366
     19 C          63.6363   87.7302   16.2516 C.ar    1  UNL1        0.0031
     20 C          63.9955   87.2070   14.8925 C.ar    1  UNL1       -0.0001
     21 C          64.1665   88.1570   13.7443 C.ar    1  UNL1        0.0007
     22 C          63.9782   89.6301   13.9552 C.ar    1  UNL1        0.0340
     23 C          64.1327   92.3179   16.6562 C.3     1  UNL1        0.2525
     24 O          63.4307   91.6264   15.5252 O.3     1  UNL1       -0.4717
     25 C          61.3873   88.7774   11.3379 C.3     1  UNL1        0.0367
     26 C          62.3440   87.8257   10.6830 C.3     1  UNL1        0.0060
     27 C          60.4306   89.7292   11.9928 C.3     1  UNL1        0.0060
     28 C          60.5809   87.6184   11.8442 C.3     1  UNL1        0.0060
@<TRIPOS>BOND
     1    23    24    1
     2    24    17    1
     3    17    18   ar
     4    18    19   ar
     5    19    20   ar
     6    20    21   ar
     7    21    22   ar
     8    22     1    1
     9     1     2    1
    10     2     3    2
    11     3    25    1
    12    25    26    1
    13    25    27    1
    14    25    28    1
    15     3     4    1
    16     4     5    2
    17     5     6    1
    18     6     7    1
    19     7     8    2
    20     7     9   am
    21     9    10    1
    22    10    11   ar
    23    11    12   ar
    24    12    13   ar
    25    13    14    1
    26    13    15   ar
    27    15    16   ar
    28    22    17   ar
    29     9     1    1
    30    16    10   ar
    31     6     2    1
@<TRIPOS>MOLECULE
*****
 28 31 0 0 0
SMALL
GASTEIGER

@<TRIPOS>ATOM
      1 C          63.0109   87.6947   12.3543 C.3     1  UNL1        0.1272
      2 C          62.9526   86.2634   11.9092 C.2     1  UNL1        0.0260
      3 C          62.5322   85.3566   10.7907 C.2     1  UNL1        0.0757
      4 N          62.8585   83.9477   11.1889 N.2     1  UNL1       -0.1569
      5 N          63.4805   83.9838   12.5534 N.2     1  UNL1       -0.1631
      6 C          63.5387   85.4150   12.9986 C.3     1  UNL1        0.2225
      7 C          63.9591   86.3219   14.1170 C.2     1  UNL1        0.2581
      8 O          64.5942   85.8948   15.4070 O.2     1  UNL1       -0.2720
      9 N          63.6329   87.7309   13.7188 N.am    1  UNL1       -0.2508
     10 C          63.8845   88.9600   14.5407 C.ar    1  UNL1        0.0546
     11 C          63.1967   89.1321   15.8626 C.ar    1  UNL1        0.0172
     12 C          63.4482   90.3614   16.6846 C.ar    1  UNL1        0.0309
     13 C          64.3877   91.4185   16.1848 C.ar    1  UNL1        0.1402
     14 F          64.6393   92.6478   17.0068 F       1  UNL1       -0.2042
     15 C          65.0756   91.2464   14.8629 C.ar    1  UNL1        0.0309
     16 C          64.8240   90.0173   14.0409 C.ar    1  UNL1        0.0172
     17 C          61.0725   89.2302   11.5576 C.ar    1  UNL1        0.1366
     18 C          60.5929   90.4171   10.7755 C.ar    1  UNL1        0.0366
     19 C          61.5722   91.2551   10.0082 C.ar    1  UNL1        0.0031
     20 C          63.0310   90.9063   10.0228 C.ar    1  UNL1       -0.0001
     21 C          63.5105   89.7194   10.8049 C.ar    1  UNL1        0.0007
     22 C          62.5313   88.8814   11.5723 C.ar    1  UNL1        0.0340
     23 C          58.7479   88.9504   12.6837 C.3     1  UNL1        0.2525
     24 O          60.0932   88.3923   12.3249 O.3     1  UNL1       -0.4717
     25 C          61.8971   85.7836    9.5007 C.3     1  UNL1        0.0367
     26 C          60.6597   86.1905   10.2445 C.3     1  UNL1        0.0060
     27 C          63.1345   85.3767    8.7568 C.3     1  UNL1        0.0060
     28 C          61.2620   86.2107    8.2106 C.3     1  UNL1        0.0060
@<TRIPOS>BOND
     1    23    24    1
     2    24    17    1
     3    17    18   ar
     4    18    19   ar
     5    19    20   ar
     6    20    21   ar
     7    21    22   ar
     8    22     1    1
     9     1     2    1
    10     2     3    2
    11     3    25    1
    12    25    26    1
    13    25    27    1
    14    25    28    1
    15     3     4    1
    16     4     5    2
    17     5     6    1
    18     6     7    1
    19     7     8    2
    20     7     9   am
    21     9    10    1
    22    10    11   ar
    23    11    12   ar
    24    12    13   ar
    25    13    14    1
    26    13    15   ar
    27    15    16   ar
    28    22    17   ar
    29     9     1    1
    30    16    10   ar
    31     6     2    1
@<TRIPOS>MOLECULE
*****
 28 31 0 0 0
SMALL
GASTEIGER

@<TRIPOS>ATOM
      1 C          63.0830   86.0395   11.9151 C.3     1  UNL1        0.1272
      2 C          63.4308   87.0386   12.9785 C.2     1  UNL1        0.0260
      3 C          63.9595   87.1911   14.3740 C.2     1  UNL1        0.0757
      4 N          63.9935   88.6550   14.6992 N.2     1  UNL1       -0.1569
      5 N          63.4858   89.4072   13.5049 N.2     1  UNL1       -0.1631
      6 C          63.1380   88.4082   12.4414 C.3     1  UNL1        0.2225
      7 C          62.6093   88.2556   11.0460 C.2     1  UNL1        0.2581
      8 O          62.1885   89.3711   10.1357 O.2     1  UNL1       -0.2720
      9 N          62.5753   86.7916   10.7207 N.am    1  UNL1       -0.2508
     10 C          62.1145   86.1862    9.4280 C.ar    1  UNL1        0.0546
     11 C          60.6809   86.3183    9.0069 C.ar    1  UNL1        0.0172
     12 C          60.2200   85.7129    7.7142 C.ar    1  UNL1        0.0309
     13 C          61.1928   84.9753    6.8426 C.ar    1  UNL1        0.1402
     14 F          60.7320   84.3698    5.5499 F       1  UNL1       -0.2042
     15 C          62.6265   84.8432    7.2638 C.ar    1  UNL1        0.0309
     16 C          63.0873   85.4486    8.5564 C.ar    1  UNL1        0.0172
     17 C          62.5239   83.8139   13.1333 C.ar    1  UNL1        0.1366
     18 C          62.6599   82.3241   13.2446 C.ar    1  UNL1        0.0366
     19 C          63.4911   81.5705   12.2490 C.ar    1  UNL1        0.0031
     20 C          64.1862   82.3064   11.1421 C.ar    1  UNL1       -0.0001
     21 C          64.0501   83.7962   11.0309 C.ar    1  UNL1        0.0007
     22 C          63.2190   84.5499   12.0264 C.ar    1  UNL1        0.0340
     23 C          61.6009   84.0862   15.5466 C.3     1  UNL1        0.2525
     24 O          61.6928   84.5675   14.1289 O.3     1  UNL1       -0.4717
     25 C          64.3803   86.0756   15.2842 C.3     1  UNL1        0.0367
     26 C          63.4221   86.5665   16.3287 C.3     1  UNL1        0.0060
     27 C          65.3386   85.5848   14.2398 C.3     1  UNL1        0.0060
     28 C          64.8012   84.9602   16.1945 C.3     1  UNL1        0.0060
@<TRIPOS>BOND
     1    23    24    1
     2    24    17    1
     3    17    18   ar
     4    18    19   ar
     5    19    20   ar
     6    20    21   ar
     7    21    22   ar
     8    22     1    1
     9     1     2    1
    10     2     3    2
    11     3    25    1
    12    25    26    1
    13    25    27    1
    14    25    28    1
    15     3     4    1
    16     4     5    2
    17     5     6    1
    18     6     7    1
    19     7     8    2
    20     7     9   am
    21     9    10    1
    22    10    11   ar
    23    11    12   ar
    24    12    13   ar
    25    13    14    1
    26    13    15   ar
    27    15    16   ar
    28    22    17   ar
    29     9     1    1
    30    16    10   ar
    31     6     2    1
@<TRIPOS>MOLECULE
*****
 28 31 0 0 0
SMALL
GASTEIGER

@<TRIPOS>ATOM
      1 C          63.1939   85.6647   12.2701 C.3     1  UNL1        0.1272
      2 C          63.4317   84.5496   13.2449 C.2     1  UNL1        0.0260
      3 C          63.3819   83.0609   13.4214 C.2     1  UNL1        0.0757
      4 N          63.8163   82.7455   14.8220 N.2     1  UNL1       -0.1569
      5 N          64.1346   84.0393   15.5111 N.2     1  UNL1       -0.1631
      6 C          63.8968   85.1543   14.5364 C.3     1  UNL1        0.2225
      7 C          63.9466   86.6431   14.3598 C.2     1  UNL1        0.2581
      8 O          64.3585   87.6411   15.4011 O.2     1  UNL1       -0.2720
      9 N          63.5121   86.9585   12.9592 N.am    1  UNL1       -0.2508
     10 C          63.4133   88.3274   12.3539 C.ar    1  UNL1        0.0546
     11 C          62.9688   88.4876   10.9303 C.ar    1  UNL1        0.0172
     12 C          62.8700   89.8565   10.3249 C.ar    1  UNL1        0.0309
     13 C          63.2156   91.0652   11.1433 C.ar    1  UNL1        0.1402
     14 F          63.1168   92.4341   10.5380 F       1  UNL1       -0.2042
     15 C          63.6601   90.9049   12.5670 C.ar    1  UNL1        0.0309
     16 C          63.7589   89.5361   13.1723 C.ar    1  UNL1        0.0172
     17 C          61.4004   86.0901   10.4391 C.ar    1  UNL1        0.1366
     18 C          60.9275   85.9381    9.0237 C.ar    1  UNL1        0.0366
     19 C          61.7751   85.2086    8.0240 C.ar    1  UNL1        0.0031
     20 C          63.0956   84.6312    8.4396 C.ar    1  UNL1       -0.0001
     21 C          63.5686   84.7832    9.8551 C.ar    1  UNL1        0.0007
     22 C          62.7210   85.5127   10.8548 C.ar    1  UNL1        0.0340
     23 C          59.8153   88.0611   11.0330 C.3     1  UNL1        0.2525
     24 O          60.5528   86.8196   11.4388 O.3     1  UNL1       -0.4717
     25 C          62.9700   82.0628   12.3801 C.3     1  UNL1        0.0367
     26 C          61.6996   81.8012   13.1334 C.3     1  UNL1        0.0060
     27 C          64.2405   82.3245   11.6268 C.3     1  UNL1        0.0060
     28 C          62.5582   81.0648   11.3389 C.3     1  UNL1        0.0060
@<TRIPOS>BOND
     1    23    24    1
     2    24    17    1
     3    17    18   ar
     4    18    19   ar
     5    19    20   ar
     6    20    21   ar
     7    21    22   ar
     8    22     1    1
     9     1     2    1
    10     2     3    2
    11     3    25    1
    12    25    26    1
    13    25    27    1
    14    25    28    1
    15     3     4    1
    16     4     5    2
    17     5     6    1
    18     6     7    1
    19     7     8    2
    20     7     9   am
    21     9    10    1
    22    10    11   ar
    23    11    12   ar
    24    12    13   ar
    25    13    14    1
    26    13    15   ar
    27    15    16   ar
    28    22    17   ar
    29     9     1    1
    30    16    10   ar
    31     6     2    1
@<TRIPOS>MOLECULE
*****
 28 31 0 0 0
SMALL
GASTEIGER

@<TRIPOS>ATOM
      1 C          64.3027   90.7956   12.9498 C.3     1  UNL1        0.1272
      2 C          65.3349   91.8829   12.8988 C.2     1  UNL1        0.0260
      3 C          66.4516   92.5327   13.6608 C.2     1  UNL1        0.0757
      4 N          67.0048   93.6421   12.8163 N.2     1  UNL1       -0.1569
      5 N          66.2301   93.6778   11.5324 N.2     1  UNL1       -0.1631
      6 C          65.1980   92.5906   11.5833 C.3     1  UNL1        0.2225
      7 C          64.0813   91.9407   10.8213 C.2     1  UNL1        0.2581
      8 O          63.6020   92.3316    9.4547 O.2     1  UNL1       -0.2720
      9 N          63.5279   90.8313   11.6658 N.am    1  UNL1       -0.2508
     10 C          62.3983   89.9181   11.2921 C.ar    1  UNL1        0.0546
     11 C          61.0657   90.0587   11.9662 C.ar    1  UNL1        0.0172
     12 C          59.9360   89.1454   11.5924 C.ar    1  UNL1        0.0309
     13 C          60.1389   88.0916   10.5445 C.ar    1  UNL1        0.1402
     14 F          59.0092   87.1783   10.1706 F       1  UNL1       -0.2042
     15 C          61.4715   87.9510    9.8702 C.ar    1  UNL1        0.0309
     16 C          62.6011   88.8642   10.2440 C.ar    1  UNL1        0.0172
     17 C          63.6760   90.3579   15.4329 C.ar    1  UNL1        0.1366
     18 C          63.4570   89.4025   16.5684 C.ar    1  UNL1        0.0366
     19 C          63.6459   87.9296   16.3564 C.ar    1  UNL1        0.0031
     20 C          64.0537   87.4121   15.0089 C.ar    1  UNL1       -0.0001
     21 C          64.2726   88.3675   13.8733 C.ar    1  UNL1        0.0007
     22 C          64.0838   89.8403   14.0853 C.ar    1  UNL1        0.0340
     23 C          63.8656   92.4544   16.9555 C.3     1  UNL1        0.2525
     24 O          63.4872   91.8307   15.6449 O.3     1  UNL1       -0.4717
     25 C          66.9308   92.1419   15.0274 C.3     1  UNL1        0.0367
     26 C          67.2187   90.7563   14.5301 C.3     1  UNL1        0.0060
     27 C          66.6429   93.5274   15.5247 C.3     1  UNL1        0.0060
     28 C          67.4101   91.7510   16.3940 C.3     1  UNL1        0.0060
@<TRIPOS>BOND
     1    23    24    1
     2    24    17    1
     3    17    18   ar
     4    18    19   ar
     5    19    20   ar
     6    20    21   ar
     7    21    22   ar
     8    22     1    1
     9     1     2    1
    10     2     3    2
    11     3    25    1
    12    25    26    1
    13    25    27    1
    14    25    28    1
    15     3     4    1
    16     4     5    2
    17     5     6    1
    18     6     7    1
    19     7     8    2
    20     7     9   am
    21     9    10    1
    22    10    11   ar
    23    11    12   ar
    24    12    13   ar
    25    13    14    1
    26    13    15   ar
    27    15    16   ar
    28    22    17   ar
    29     9     1    1
    30    16    10   ar
    31     6     2    1
@<TRIPOS>MOLECULE
*****
 28 31 0 0 0
SMALL
GASTEIGER

@<TRIPOS>ATOM
      1 C          62.9185   87.3764   12.2205 C.3     1  UNL1        0.1272
      2 C          63.4585   87.1454   13.6007 C.2     1  UNL1        0.0260
      3 C          63.8570   87.8248   14.8773 C.2     1  UNL1        0.0757
      4 N          64.3323   86.7718   15.8339 N.2     1  UNL1       -0.1569
      5 N          64.2275   85.4416   15.1486 N.2     1  UNL1       -0.1631
      6 C          63.6875   85.6725   13.7684 C.3     1  UNL1        0.2225
      7 C          63.2890   84.9931   12.4918 C.2     1  UNL1        0.2581
      8 O          63.3543   83.5195   12.2197 O.2     1  UNL1       -0.2720
      9 N          62.8137   86.0462   11.5351 N.am    1  UNL1       -0.2508
     10 C          62.3203   85.8104   10.1384 C.ar    1  UNL1        0.0546
     11 C          60.9441   86.2577    9.7436 C.ar    1  UNL1        0.0172
     12 C          60.4506   86.0220    8.3468 C.ar    1  UNL1        0.0309
     13 C          61.3334   85.3389    7.3448 C.ar    1  UNL1        0.1402
     14 F          60.8400   85.1032    5.9481 F       1  UNL1       -0.2042
     15 C          62.7097   84.8916    7.7396 C.ar    1  UNL1        0.0309
     16 C          63.2031   85.1274    9.1363 C.ar    1  UNL1        0.0172
     17 C          61.1156   89.1488   11.6219 C.ar    1  UNL1        0.1366
     18 C          60.7454   90.4768   11.0307 C.ar    1  UNL1        0.0366
     19 C          61.8078   91.3603   10.4469 C.ar    1  UNL1        0.0031
     20 C          63.2404   90.9158   10.4544 C.ar    1  UNL1       -0.0001
     21 C          63.6106   89.5878   11.0456 C.ar    1  UNL1        0.0007
     22 C          62.5483   88.7043   11.6293 C.ar    1  UNL1        0.0340
     23 C          58.7317   88.8484   12.6102 C.3     1  UNL1        0.2525
     24 O          60.0532   88.2653   12.2056 O.3     1  UNL1       -0.4717
     25 C          63.7917   89.2985   15.1494 C.3     1  UNL1        0.0367
     26 C          62.6990   89.0653   16.1501 C.3     1  UNL1        0.0060
     27 C          64.8845   89.5317   14.1486 C.3     1  UNL1        0.0060
     28 C          63.7265   90.7722   15.4215 C.3     1  UNL1        0.0060
@<TRIPOS>BOND
     1    23    24    1
     2    24    17    1
     3    17    18   ar
     4    18    19   ar
     5    19    20   ar
     6    20    21   ar
     7    21    22   ar
     8    22     1    1
     9     1     2    1
    10     2     3    2
    11     3    25    1
    12    25    26    1
    13    25    27    1
    14    25    28    1
    15     3     4    1
    16     4     5    2
    17     5     6    1
    18     6     7    1
    19     7     8    2
    20     7     9   am
    21     9    10    1
    22    10    11   ar
    23    11    12   ar
    24    12    13   ar
    25    13    14    1
    26    13    15   ar
    27    15    16   ar
    28    22    17   ar
    29     9     1    1
    30    16    10   ar
    31     6     2    1
@<TRIPOS>MOLECULE
*****
 28 31 0 0 0
SMALL
GASTEIGER

@<TRIPOS>ATOM
      1 C          62.9093   86.7880   12.2077 C.3     1  UNL1        0.1272
      2 C          63.3017   88.1265   12.7594 C.2     1  UNL1        0.0260
      3 C          63.1809   89.6072   12.5520 C.2     1  UNL1        0.0757
      4 N          63.9365   90.2923   13.6519 N.2     1  UNL1       -0.1569
      5 N          64.5242   89.2351   14.5390 N.2     1  UNL1       -0.1631
      6 C          64.1318   87.8966   13.9874 C.3     1  UNL1        0.2225
      7 C          64.2525   86.4159   14.1947 C.2     1  UNL1        0.2581
      8 O          64.9979   85.7391   15.3067 O.2     1  UNL1       -0.2720
      9 N          63.4969   85.7307   13.0948 N.am    1  UNL1       -0.2508
     10 C          63.3541   84.2486   12.9138 C.ar    1  UNL1        0.0546
     11 C          61.9940   83.6428   12.7315 C.ar    1  UNL1        0.0172
     12 C          61.8512   82.1606   12.5505 C.ar    1  UNL1        0.0309
     13 C          63.0684   81.2842   12.5518 C.ar    1  UNL1        0.1402
     14 F          62.9257   79.8020   12.3708 F       1  UNL1       -0.2042
     15 C          64.4286   81.8899   12.7341 C.ar    1  UNL1        0.0309
     16 C          64.5714   83.3720   12.9151 C.ar    1  UNL1        0.0172
     17 C          62.5620   85.6141    9.9161 C.ar    1  UNL1        0.1366
     18 C          61.7283   85.3748    8.6922 C.ar    1  UNL1        0.0366
     19 C          60.4083   86.0700    8.5362 C.ar    1  UNL1        0.0031
     20 C          59.9219   87.0045    9.6040 C.ar    1  UNL1       -0.0001
     21 C          60.7557   87.2438   10.8279 C.ar    1  UNL1        0.0007
     22 C          62.0757   86.5486   10.9839 C.ar    1  UNL1        0.0340
     23 C          64.0712   83.5365    9.5217 C.3     1  UNL1        0.2525
     24 O          63.8820   84.9190   10.0721 O.3     1  UNL1       -0.4717
     25 C          62.4356   90.2839   11.4400 C.3     1  UNL1        0.0367
     26 C          61.1395   90.0170   12.1464 C.3     1  UNL1        0.0060
     27 C          63.7316   90.5509   10.7337 C.3     1  UNL1        0.0060
     28 C          61.6902   90.9607   10.3281 C.3     1  UNL1        0.0060
@<TRIPOS>BOND
     1    23    24    1
     2    24    17    1
     3    17    18   ar
     4    18    19   ar
     5    19    20   ar
     6    20    21   ar
     7    21    22   ar
     8    22     1    1
     9     1     2    1
    10     2     3    2
    11     3    25    1
    12    25    26    1
    13    25    27    1
    14    25    28    1
    15     3     4    1
    16     4     5    2
    17     5     6    1
    18     6     7    1
    19     7     8    2
    20     7     9   am
    21     9    10    1
    22    10    11   ar
    23    11    12   ar
    24    12    13   ar
    25    13    14    1
    26    13    15   ar
    27    15    16   ar
    28    22    17   ar
    29     9     1    1
    30    16    10   ar
    31     6     2    1
@<TRIPOS>MOLECULE
*****
 28 31 0 0 0
SMALL
GASTEIGER

@<TRIPOS>ATOM
      1 C          64.2072   90.9862   13.0043 C.3     1  UNL1        0.1272
      2 C          65.3409   91.9398   12.7689 C.2     1  UNL1        0.0260
      3 C          66.5228   92.6023   13.4123 C.2     1  UNL1        0.0757
      4 N          67.1752   93.4826   12.3879 N.2     1  UNL1       -0.1569
      5 N          66.3965   93.3641   11.1114 N.2     1  UNL1       -0.1631
      6 C          65.2628   92.4106   11.3468 C.3     1  UNL1        0.2225
      7 C          64.0809   91.7480   10.7034 C.2     1  UNL1        0.2581
      8 O          63.6304   91.9333    9.2846 O.2     1  UNL1       -0.2720
      9 N          63.4284   90.8677   11.7278 N.am    1  UNL1       -0.2508
     10 C          62.2110   90.0181   11.5133 C.ar    1  UNL1        0.0546
     11 C          62.2373   88.9120   10.5005 C.ar    1  UNL1        0.0172
     12 C          61.0199   88.0623   10.2859 C.ar    1  UNL1        0.0309
     13 C          59.7762   88.3188   11.0843 C.ar    1  UNL1        0.1402
     14 F          58.5588   87.4691   10.8698 F       1  UNL1       -0.2042
     15 C          59.7499   89.4249   12.0972 C.ar    1  UNL1        0.0309
     16 C          60.9672   90.2745   12.3117 C.ar    1  UNL1        0.0172
     17 C          63.7834   88.7809   14.3109 C.ar    1  UNL1        0.1366
     18 C          63.4814   88.0706   15.5972 C.ar    1  UNL1        0.0366
     19 C          63.3012   88.8552   16.8629 C.ar    1  UNL1        0.0031
     20 C          63.4230   90.3501   16.8424 C.ar    1  UNL1       -0.0001
     21 C          63.7250   91.0604   15.5561 C.ar    1  UNL1        0.0007
     22 C          63.9052   90.2759   14.2905 C.ar    1  UNL1        0.0340
     23 C          63.5131   86.5672   12.9782 C.3     1  UNL1        0.2525
     24 O          63.9636   87.9964   13.0453 O.3     1  UNL1       -0.4717
     25 C          66.9733   92.4171   14.8311 C.3     1  UNL1        0.0367
     26 C          66.6010   93.8380   15.1348 C.3     1  UNL1        0.0060
     27 C          67.3456   90.9961   14.5273 C.3     1  UNL1        0.0060
     28 C          67.4237   92.2318   16.2498 C.3     1  UNL1        0.0060
@<TRIPOS>BOND
     1    23    24    1
     2    24    17    1
     3    17    18   ar
     4    18    19   ar
     5    19    20   ar
     6    20    21   ar
     7    21    22   ar
     8    22     1    1
     9     1     2    1
    10     2     3    2
    11     3    25    1
    12    25    26    1
    13    25    27    1
    14    25    28    1
    15     3     4    1
    16     4     5    2
    17     5     6    1
    18     6     7    1
    19     7     8    2
    20     7     9   am
    21     9    10    1
    22    10    11   ar
    23    11    12   ar
    24    12    13   ar
    25    13    14    1
    26    13    15   ar
    27    15    16   ar
    28    22    17   ar
    29     9     1    1
    30    16    10   ar
    31     6     2    1
