@<TRIPOS>MOLECULE
*****
 33 36 0 0 0
SMALL
GASTEIGER

@<TRIPOS>ATOM
      1 C          63.0306   82.4994   13.6491 C.3     1  UNL1        0.0782
      2 C          64.3500   83.1198   14.0017 C.3     1  UNL1        0.0372
      3 C          64.4105   84.2355   15.0025 C.3     1  UNL1        0.0741
      4 N          63.1518   84.7309   15.6505 N.3     1  UNL1       -0.2689
      5 C          61.8323   84.1106   15.2979 C.3     1  UNL1        0.0741
      6 C          61.7717   82.9948   14.2972 C.3     1  UNL1        0.0372
      7 C          62.3481   80.0716   13.0247 C.3     1  UNL1        0.1148
      8 N          62.9700   81.3837   12.6484 N.am    1  UNL1       -0.2790
      9 C          63.5314   81.5800   11.2713 C.2     1  UNL1        0.2301
     10 O          63.4708   80.4643   10.2706 O.2     1  UNL1       -0.2745
     11 C          64.1534   82.8921   10.8949 C.3     1  UNL1        0.1116
     12 C          63.2990   83.9984   10.3507 C.ar    1  UNL1       -0.0130
     13 C          62.3412   84.7192   11.2523 C.ar    1  UNL1       -0.0022
     14 C          61.4869   85.8255   10.7081 C.ar    1  UNL1        0.0190
     15 C          61.5904   86.2110    9.2622 C.ar    1  UNL1        0.0862
     16 C          62.5482   85.4902    8.3605 C.ar    1  UNL1        0.0190
     17 C          63.4025   84.3839    8.9048 C.ar    1  UNL1       -0.0022
     18 N          60.7360   87.3173    8.7179 N.ar    1  UNL1       -0.1886
     19 C          59.6470   87.1695    7.6970 C.ar    1  UNL1        0.2258
     20 N          59.0586   88.5264    7.4471 N.ar    1  UNL1       -0.1045
     21 N          59.7840   89.5129    8.3136 N.ar    1  UNL1       -0.0222
     22 N          60.8207   88.7656    9.0990 N.ar    1  UNL1       -0.0385
     23 C          63.2124   85.8467   16.6512 C.3     1  UNL1        0.0991
     24 C          63.5664   87.2347   16.2064 C.ar    1  UNL1       -0.0062
     25 C          64.3717   87.4395   14.9576 C.ar    1  UNL1       -0.0030
     26 C          64.7259   88.8276   14.5127 C.ar    1  UNL1        0.0036
     27 C          64.2747   90.0108   15.3166 C.ar    1  UNL1        0.0714
     28 C          63.4693   89.8060   16.5655 C.ar    1  UNL1        0.0036
     29 C          63.1152   88.4180   17.0103 C.ar    1  UNL1       -0.0030
     30 C          64.6287   91.3989   14.8718 C.3     1  UNL1        0.4186
     31 F          64.9828   92.7869   14.4270 F       1  UNL1       -0.1659
     32 F          64.3934   91.9051   16.2640 F       1  UNL1       -0.1659
     33 F          64.8641   90.8927   13.4796 F       1  UNL1       -0.1659
@<TRIPOS>BOND
     1     7     8    1
     2     8     9   am
     3     9    10    2
     4     9    11    1
     5    11    12    1
     6    12    13   ar
     7    13    14   ar
     8    14    15   ar
     9    15    18    1
    10    18    19   ar
    11    19    20   ar
    12    20    21   ar
    13    21    22   ar
    14    15    16   ar
    15    16    17   ar
    16     8     1    1
    17     1     2    1
    18     2     3    1
    19     3     4    1
    20     4    23    1
    21    23    24    1
    22    24    25   ar
    23    25    26   ar
    24    26    27   ar
    25    27    30    1
    26    30    31    1
    27    30    32    1
    28    30    33    1
    29    27    28   ar
    30    28    29   ar
    31     4     5    1
    32     5     6    1
    33    17    12   ar
    34     6     1    1
    35    22    18   ar
    36    29    24   ar
@<TRIPOS>MOLECULE
*****
 33 36 0 0 0
SMALL
GASTEIGER

@<TRIPOS>ATOM
      1 C          63.6154   87.8762   15.7346 C.3     1  UNL1        0.0782
      2 C          62.6698   87.1012   16.6036 C.3     1  UNL1        0.0372
      3 C          62.7086   85.6017   16.6033 C.3     1  UNL1        0.0741
      4 N          63.6931   84.8772   15.7340 N.3     1  UNL1       -0.2689
      5 C          64.6388   85.6521   14.8649 C.3     1  UNL1        0.0741
      6 C          64.6000   87.1516   14.8652 C.3     1  UNL1        0.0372
      7 C          63.1749   90.1152   16.9765 C.3     1  UNL1        0.1148
      8 N          63.5766   89.3756   15.7349 N.am    1  UNL1       -0.2790
      9 C          63.9394   90.1355   14.4935 C.2     1  UNL1        0.2301
     10 O          63.9005   91.6350   14.4937 O.2     1  UNL1       -0.2745
     11 C          64.3410   89.3959   13.2518 C.3     1  UNL1        0.1116
     12 C          63.3268   89.1212   12.1813 C.ar    1  UNL1       -0.0130
     13 C          62.8098   87.7279   11.9778 C.ar    1  UNL1       -0.0022
     14 C          61.7956   87.4532   10.9073 C.ar    1  UNL1        0.0190
     15 C          61.2984   88.5718   10.0404 C.ar    1  UNL1        0.0862
     16 C          61.8154   89.9651   10.2440 C.ar    1  UNL1        0.0190
     17 C          62.8295   90.2398   11.3144 C.ar    1  UNL1       -0.0022
     18 N          60.2842   88.2970    8.9699 N.ar    1  UNL1       -0.1886
     19 C          59.5600   87.0014    8.7531 C.ar    1  UNL1        0.2258
     20 N          58.6443   87.1732    7.5775 N.ar    1  UNL1       -0.1045
     21 N          58.8026   88.5751    7.0677 N.ar    1  UNL1       -0.0222
     22 N          59.8161   89.2696    7.9283 N.ar    1  UNL1       -0.0385
     23 C          63.7320   83.3777   15.7337 C.3     1  UNL1        0.0991
     24 C          63.5332   82.6225   14.4530 C.ar    1  UNL1       -0.0062
     25 C          64.4034   82.9153   13.2669 C.ar    1  UNL1       -0.0030
     26 C          64.2046   82.1602   11.9861 C.ar    1  UNL1        0.0036
     27 C          63.1355   81.1122   11.8916 C.ar    1  UNL1        0.0714
     28 C          62.2653   80.8194   13.0778 C.ar    1  UNL1        0.0036
     29 C          62.4641   81.5745   14.3585 C.ar    1  UNL1       -0.0030
     30 C          62.9367   80.3570   10.6109 C.3     1  UNL1        0.4186
     31 F          62.7379   79.6019    9.3302 F       1  UNL1       -0.1659
     32 F          63.2839   81.5898    9.8301 F       1  UNL1       -0.1659
     33 F          62.5895   79.1243   11.3917 F       1  UNL1       -0.1659
@<TRIPOS>BOND
     1     7     8    1
     2     8     9   am
     3     9    10    2
     4     9    11    1
     5    11    12    1
     6    12    13   ar
     7    13    14   ar
     8    14    15   ar
     9    15    18    1
    10    18    19   ar
    11    19    20   ar
    12    20    21   ar
    13    21    22   ar
    14    15    16   ar
    15    16    17   ar
    16     8     1    1
    17     1     2    1
    18     2     3    1
    19     3     4    1
    20     4    23    1
    21    23    24    1
    22    24    25   ar
    23    25    26   ar
    24    26    27   ar
    25    27    30    1
    26    30    31    1
    27    30    32    1
    28    30    33    1
    29    27    28   ar
    30    28    29   ar
    31     4     5    1
    32     5     6    1
    33    17    12   ar
    34     6     1    1
    35    22    18   ar
    36    29    24   ar
@<TRIPOS>MOLECULE
*****
 33 36 0 0 0
SMALL
GASTEIGER

@<TRIPOS>ATOM
      1 C          60.9219   87.9644    9.6262 C.3     1  UNL1        0.0782
      2 C          62.3049   88.5401    9.7036 C.3     1  UNL1        0.0372
      3 C          62.7114   89.3577   10.8936 C.3     1  UNL1        0.0741
      4 N          61.7351   89.5996   12.0063 N.3     1  UNL1       -0.2689
      5 C          60.3520   89.0240   11.9290 C.3     1  UNL1        0.0741
      6 C          59.9455   88.2063   10.7389 C.3     1  UNL1        0.0372
      7 C          59.1905   87.3901    7.7763 C.3     1  UNL1        0.1148
      8 N          60.5153   87.1468    8.4362 N.am    1  UNL1       -0.2790
      9 C          61.4337   86.0857    7.9061 C.2     1  UNL1        0.2301
     10 O          61.0271   85.2681    6.7160 O.2     1  UNL1       -0.2745
     11 C          62.7585   85.8424    8.5660 C.3     1  UNL1        0.1116
     12 C          62.8819   84.8017    9.6392 C.ar    1  UNL1       -0.0130
     13 C          62.2015   85.0028   10.9608 C.ar    1  UNL1       -0.0022
     14 C          62.3249   83.9621   12.0339 C.ar    1  UNL1        0.0190
     15 C          63.1288   82.7203   11.7855 C.ar    1  UNL1        0.0862
     16 C          63.8093   82.5192   10.4640 C.ar    1  UNL1        0.0190
     17 C          63.6858   83.5599    9.3909 C.ar    1  UNL1       -0.0022
     18 N          63.2523   81.6796   12.8588 N.ar    1  UNL1       -0.1886
     19 C          62.5982   80.3297   12.8573 C.ar    1  UNL1        0.2258
     20 N          62.9931   79.6219   14.1194 N.ar    1  UNL1       -0.1045
     21 N          63.8912   80.5344   14.9010 N.ar    1  UNL1       -0.0222
     22 N          64.0513   81.8061   14.1219 N.ar    1  UNL1       -0.0385
     23 C          62.1417   90.4173   13.1963 C.3     1  UNL1        0.0991
     24 C          63.5785   90.8043   13.3848 C.ar    1  UNL1       -0.0062
     25 C          64.2191   91.7876   12.4507 C.ar    1  UNL1       -0.0030
     26 C          65.6560   92.1747   12.6392 C.ar    1  UNL1        0.0036
     27 C          66.4523   91.5784   13.7619 C.ar    1  UNL1        0.0714
     28 C          65.8117   90.5950   14.6960 C.ar    1  UNL1        0.0036
     29 C          64.3748   90.2080   14.5075 C.ar    1  UNL1       -0.0030
     30 C          67.8892   91.9654   13.9504 C.3     1  UNL1        0.4186
     31 F          69.3260   92.3524   14.1389 F       1  UNL1       -0.1659
     32 F          68.1657   91.6390   12.5127 F       1  UNL1       -0.1659
     33 F          67.6126   92.2918   15.3881 F       1  UNL1       -0.1659
@<TRIPOS>BOND
     1     7     8    1
     2     8     9   am
     3     9    10    2
     4     9    11    1
     5    11    12    1
     6    12    13   ar
     7    13    14   ar
     8    14    15   ar
     9    15    18    1
    10    18    19   ar
    11    19    20   ar
    12    20    21   ar
    13    21    22   ar
    14    15    16   ar
    15    16    17   ar
    16     8     1    1
    17     1     2    1
    18     2     3    1
    19     3     4    1
    20     4    23    1
    21    23    24    1
    22    24    25   ar
    23    25    26   ar
    24    26    27   ar
    25    27    30    1
    26    30    31    1
    27    30    32    1
    28    30    33    1
    29    27    28   ar
    30    28    29   ar
    31     4     5    1
    32     5     6    1
    33    17    12   ar
    34     6     1    1
    35    22    18   ar
    36    29    24   ar
@<TRIPOS>MOLECULE
*****
 33 36 0 0 0
SMALL
GASTEIGER

@<TRIPOS>ATOM
      1 C          63.3169   83.4383   13.8352 C.3     1  UNL1        0.0782
      2 C          64.6784   84.0526   13.6982 C.3     1  UNL1        0.0372
      3 C          64.9460   85.4167   14.2616 C.3     1  UNL1        0.0741
      4 N          63.8520   86.1666   14.9621 N.3     1  UNL1       -0.2689
      5 C          62.4904   85.5524   15.0992 C.3     1  UNL1        0.0741
      6 C          62.2228   84.1882   14.5358 C.3     1  UNL1        0.0372
      7 C          62.3913   81.0277   14.1213 C.3     1  UNL1        0.1148
      8 N          63.0493   82.0742   13.2718 N.am    1  UNL1       -0.2790
      9 C          63.4398   81.7566   11.8587 C.2     1  UNL1        0.2301
     10 O          63.1723   80.3924   11.2952 O.2     1  UNL1       -0.2745
     11 C          64.0978   82.8031   11.0091 C.3     1  UNL1        0.1116
     12 C          63.2825   83.9219   10.4316 C.ar    1  UNL1       -0.0130
     13 C          62.2660   84.6253   11.2812 C.ar    1  UNL1       -0.0022
     14 C          61.4507   85.7440   10.7036 C.ar    1  UNL1        0.0190
     15 C          61.6520   86.1594    9.2764 C.ar    1  UNL1        0.0862
     16 C          62.6685   85.4561    8.4268 C.ar    1  UNL1        0.0190
     17 C          63.4838   84.3373    9.0044 C.ar    1  UNL1       -0.0022
     18 N          60.8366   87.2783    8.6988 N.ar    1  UNL1       -0.1886
     19 C          60.8546   88.7078    9.1528 C.ar    1  UNL1        0.2258
     20 N          59.8893   89.4771    8.3005 N.ar    1  UNL1       -0.1045
     21 N          59.2747   88.5229    7.3198 N.ar    1  UNL1       -0.0222
     22 N          59.8602   87.1640    7.5660 N.ar    1  UNL1       -0.0385
     23 C          64.1196   87.5308   15.5256 C.3     1  UNL1        0.0991
     24 C          64.2692   88.7061   14.6057 C.ar    1  UNL1       -0.0062
     25 C          63.5660   88.7157   13.2808 C.ar    1  UNL1       -0.0030
     26 C          63.7156   89.8911   12.3608 C.ar    1  UNL1        0.0036
     27 C          64.5683   91.0568   12.7658 C.ar    1  UNL1        0.0714
     28 C          65.2714   91.0471   14.0908 C.ar    1  UNL1        0.0036
     29 C          65.1219   89.8718   15.0107 C.ar    1  UNL1       -0.0030
     30 C          64.7178   92.2321   11.8460 C.3     1  UNL1        0.4186
     31 F          64.8674   93.4074   10.9261 F       1  UNL1       -0.1659
     32 F          64.0681   91.4510   10.7424 F       1  UNL1       -0.1659
     33 F          65.3676   93.0131   12.9495 F       1  UNL1       -0.1659
@<TRIPOS>BOND
     1     7     8    1
     2     8     9   am
     3     9    10    2
     4     9    11    1
     5    11    12    1
     6    12    13   ar
     7    13    14   ar
     8    14    15   ar
     9    15    18    1
    10    18    19   ar
    11    19    20   ar
    12    20    21   ar
    13    21    22   ar
    14    15    16   ar
    15    16    17   ar
    16     8     1    1
    17     1     2    1
    18     2     3    1
    19     3     4    1
    20     4    23    1
    21    23    24    1
    22    24    25   ar
    23    25    26   ar
    24    26    27   ar
    25    27    30    1
    26    30    31    1
    27    30    32    1
    28    30    33    1
    29    27    28   ar
    30    28    29   ar
    31     4     5    1
    32     5     6    1
    33    17    12   ar
    34     6     1    1
    35    22    18   ar
    36    29    24   ar
@<TRIPOS>MOLECULE
*****
 33 36 0 0 0
SMALL
GASTEIGER

@<TRIPOS>ATOM
      1 C          63.5941   87.6382   15.9104 C.3     1  UNL1        0.0782
      2 C          64.6371   87.8455   14.8525 C.3     1  UNL1        0.0372
      3 C          65.0927   89.2330   14.5101 C.3     1  UNL1        0.0741
      4 N          64.5054   90.4132   15.2257 N.3     1  UNL1       -0.2689
      5 C          63.4624   90.2060   16.2837 C.3     1  UNL1        0.0741
      6 C          63.0068   88.8185   16.6260 C.3     1  UNL1        0.0372
      7 C          62.4851   85.9809   17.5757 C.3     1  UNL1        0.1148
      8 N          63.1385   86.2507   16.2528 N.am    1  UNL1       -0.2790
      9 C          63.3363   85.1330   15.2721 C.2     1  UNL1        0.2301
     10 O          62.8807   83.7455   15.6145 O.2     1  UNL1       -0.2745
     11 C          63.9898   85.4028   13.9492 C.3     1  UNL1        0.1116
     12 C          63.1527   85.7735   12.7609 C.ar    1  UNL1       -0.0130
     13 C          62.4833   84.7026   11.9516 C.ar    1  UNL1       -0.0022
     14 C          61.6463   85.0733   10.7634 C.ar    1  UNL1        0.0190
     15 C          61.4786   86.5149   10.3845 C.ar    1  UNL1        0.0862
     16 C          62.1480   87.5858   11.1938 C.ar    1  UNL1        0.0190
     17 C          62.9850   87.2151   12.3821 C.ar    1  UNL1       -0.0022
     18 N          60.6415   86.8856    9.1962 N.ar    1  UNL1       -0.1886
     19 C          60.1263   88.2570    8.8740 C.ar    1  UNL1        0.2258
     20 N          59.3391   88.1691    7.6003 N.ar    1  UNL1       -0.1045
     21 N          59.3678   86.7432    7.1352 N.ar    1  UNL1       -0.0222
     22 N          60.1727   85.9500    8.1216 N.ar    1  UNL1       -0.0385
     23 C          64.9610   91.8008   14.8833 C.3     1  UNL1        0.0991
     24 C          65.6298   92.0672   13.5674 C.ar    1  UNL1       -0.0062
     25 C          67.1267   92.1072   13.4814 C.ar    1  UNL1       -0.0030
     26 C          67.7956   92.3737   12.1654 C.ar    1  UNL1        0.0036
     27 C          66.9674   92.6002   10.9355 C.ar    1  UNL1        0.0714
     28 C          65.4703   92.5602   11.0215 C.ar    1  UNL1        0.0036
     29 C          64.8016   92.2938   12.3374 C.ar    1  UNL1       -0.0030
     30 C          67.6361   92.8667    9.6196 C.3     1  UNL1        0.4186
     31 F          68.3049   93.1332    8.3036 F       1  UNL1       -0.1659
     32 F          68.7198   91.8917    9.9729 F       1  UNL1       -0.1659
     33 F          66.5524   93.8417    9.2663 F       1  UNL1       -0.1659
@<TRIPOS>BOND
     1     7     8    1
     2     8     9   am
     3     9    10    2
     4     9    11    1
     5    11    12    1
     6    12    13   ar
     7    13    14   ar
     8    14    15   ar
     9    15    18    1
    10    18    19   ar
    11    19    20   ar
    12    20    21   ar
    13    21    22   ar
    14    15    16   ar
    15    16    17   ar
    16     8     1    1
    17     1     2    1
    18     2     3    1
    19     3     4    1
    20     4    23    1
    21    23    24    1
    22    24    25   ar
    23    25    26   ar
    24    26    27   ar
    25    27    30    1
    26    30    31    1
    27    30    32    1
    28    30    33    1
    29    27    28   ar
    30    28    29   ar
    31     4     5    1
    32     5     6    1
    33    17    12   ar
    34     6     1    1
    35    22    18   ar
    36    29    24   ar
@<TRIPOS>MOLECULE
*****
 33 36 0 0 0
SMALL
GASTEIGER

@<TRIPOS>ATOM
      1 C          61.0156   87.4505    9.5560 C.3     1  UNL1        0.0782
      2 C          60.9678   88.9493    9.5944 C.3     1  UNL1        0.0372
      3 C          60.1392   89.6991    8.5938 C.3     1  UNL1        0.0741
      4 N          59.3583   88.9502    7.5549 N.3     1  UNL1       -0.2689
      5 C          59.4061   87.4514    7.5165 C.3     1  UNL1        0.0741
      6 C          60.2347   86.7016    8.5170 C.3     1  UNL1        0.0372
      7 C          62.0288   85.2187   10.4174 C.3     1  UNL1        0.1148
      8 N          61.8442   86.7007   10.5566 N.am    1  UNL1       -0.2790
      9 C          62.4882   87.4330   11.6963 C.2     1  UNL1        0.2301
     10 O          63.3169   86.6831   12.6969 O.2     1  UNL1       -0.2745
     11 C          62.3036   88.9150   11.8355 C.3     1  UNL1        0.1116
     12 C          63.3613   89.7432   12.5031 C.ar    1  UNL1       -0.0130
     13 C          63.8689   90.9887   11.8391 C.ar    1  UNL1       -0.0022
     14 C          64.9265   91.8168   12.5066 C.ar    1  UNL1        0.0190
     15 C          65.4765   91.3993   13.8382 C.ar    1  UNL1        0.0862
     16 C          64.9690   90.1538   14.5023 C.ar    1  UNL1        0.0190
     17 C          63.9114   89.3257   13.8347 C.ar    1  UNL1       -0.0022
     18 N          66.5342   92.2275   14.5058 N.ar    1  UNL1       -0.1886
     19 C          66.4990   92.7306   15.9185 C.ar    1  UNL1        0.2258
     20 N          67.7558   93.5120   16.1637 N.ar    1  UNL1       -0.1045
     21 N          68.5677   93.4917   14.9025 N.ar    1  UNL1       -0.0222
     22 N          67.8127   92.6978   13.8779 N.ar    1  UNL1       -0.0385
     23 C          58.5297   89.7001    6.5543 C.3     1  UNL1        0.0991
     24 C          59.1954   90.5790    5.5373 C.ar    1  UNL1       -0.0062
     25 C          60.6692   90.4539    5.2878 C.ar    1  UNL1       -0.0030
     26 C          61.3349   91.3329    4.2708 C.ar    1  UNL1        0.0036
     27 C          60.5269   92.3369    3.5033 C.ar    1  UNL1        0.0714
     28 C          59.0530   92.4620    3.7529 C.ar    1  UNL1        0.0036
     29 C          58.3873   91.5830    4.7699 C.ar    1  UNL1       -0.0030
     30 C          61.1926   93.2158    2.4864 C.3     1  UNL1        0.4186
     31 F          61.8583   94.0948    1.4694 F       1  UNL1       -0.1659
     32 F          62.5321   92.6880    2.9070 F       1  UNL1       -0.1659
     33 F          59.8530   93.7436    2.0657 F       1  UNL1       -0.1659
@<TRIPOS>BOND
     1     7     8    1
     2     8     9   am
     3     9    10    2
     4     9    11    1
     5    11    12    1
     6    12    13   ar
     7    13    14   ar
     8    14    15   ar
     9    15    18    1
    10    18    19   ar
    11    19    20   ar
    12    20    21   ar
    13    21    22   ar
    14    15    16   ar
    15    16    17   ar
    16     8     1    1
    17     1     2    1
    18     2     3    1
    19     3     4    1
    20     4    23    1
    21    23    24    1
    22    24    25   ar
    23    25    26   ar
    24    26    27   ar
    25    27    30    1
    26    30    31    1
    27    30    32    1
    28    30    33    1
    29    27    28   ar
    30    28    29   ar
    31     4     5    1
    32     5     6    1
    33    17    12   ar
    34     6     1    1
    35    22    18   ar
    36    29    24   ar
@<TRIPOS>MOLECULE
*****
 33 36 0 0 0
SMALL
GASTEIGER

@<TRIPOS>ATOM
      1 C          60.9404   87.8997   10.9243 C.3     1  UNL1        0.0782
      2 C          61.9282   87.3971   11.9350 C.3     1  UNL1        0.0372
      3 C          62.7646   86.1898   11.6302 C.3     1  UNL1        0.0741
      4 N          62.6131   85.4851   10.3147 N.3     1  UNL1       -0.2689
      5 C          61.6252   85.9878    9.3040 C.3     1  UNL1        0.0741
      6 C          60.7889   87.1951    9.6088 C.3     1  UNL1        0.0372
      7 C          58.7662   88.9457   11.8881 C.3     1  UNL1        0.1148
      8 N          60.1040   89.1070   11.2291 N.am    1  UNL1       -0.2790
      9 C          60.6055   90.4757   10.8750 C.2     1  UNL1        0.2301
     10 O          59.7691   91.6830   11.1798 O.2     1  UNL1       -0.2745
     11 C          61.9433   90.6370   10.2160 C.3     1  UNL1        0.1116
     12 C          63.1269   91.0849   11.0214 C.ar    1  UNL1       -0.0130
     13 C          64.1633   91.9740   10.4007 C.ar    1  UNL1       -0.0022
     14 C          65.3468   92.4219   11.2060 C.ar    1  UNL1        0.0190
     15 C          65.4940   91.9806   12.6321 C.ar    1  UNL1        0.0862
     16 C          64.4576   91.0915   13.2528 C.ar    1  UNL1        0.0190
     17 C          63.2741   90.6436   12.4474 C.ar    1  UNL1       -0.0022
     18 N          66.6776   92.4285   13.4374 N.ar    1  UNL1       -0.1886
     19 C          66.6564   93.4306   14.5534 C.ar    1  UNL1        0.2258
     20 N          68.0558   93.5745   15.0739 N.ar    1  UNL1       -0.1045
     21 N          68.9419   92.6612   14.2795 N.ar    1  UNL1       -0.0222
     22 N          68.0901   91.9530   13.2682 N.ar    1  UNL1       -0.0385
     23 C          63.4495   84.2778   10.0099 C.3     1  UNL1        0.0991
     24 C          63.2518   83.0120   10.7901 C.ar    1  UNL1       -0.0062
     25 C          62.9448   83.0753   12.2569 C.ar    1  UNL1       -0.0030
     26 C          62.7471   81.8095   13.0372 C.ar    1  UNL1        0.0036
     27 C          62.8563   80.4804   12.3504 C.ar    1  UNL1        0.0714
     28 C          63.1632   80.4172   10.8835 C.ar    1  UNL1        0.0036
     29 C          63.3609   81.6829   10.1033 C.ar    1  UNL1       -0.0030
     30 C          62.6585   79.2147   13.1306 C.3     1  UNL1        0.4186
     31 F          62.4608   77.9489   13.9107 F       1  UNL1       -0.1659
     32 F          62.8562   79.9723   14.4099 F       1  UNL1       -0.1659
     33 F          62.4608   78.4570   11.8512 F       1  UNL1       -0.1659
@<TRIPOS>BOND
     1     7     8    1
     2     8     9   am
     3     9    10    2
     4     9    11    1
     5    11    12    1
     6    12    13   ar
     7    13    14   ar
     8    14    15   ar
     9    15    18    1
    10    18    19   ar
    11    19    20   ar
    12    20    21   ar
    13    21    22   ar
    14    15    16   ar
    15    16    17   ar
    16     8     1    1
    17     1     2    1
    18     2     3    1
    19     3     4    1
    20     4    23    1
    21    23    24    1
    22    24    25   ar
    23    25    26   ar
    24    26    27   ar
    25    27    30    1
    26    30    31    1
    27    30    32    1
    28    30    33    1
    29    27    28   ar
    30    28    29   ar
    31     4     5    1
    32     5     6    1
    33    17    12   ar
    34     6     1    1
    35    22    18   ar
    36    29    24   ar
@<TRIPOS>MOLECULE
*****
 33 36 0 0 0
SMALL
GASTEIGER

@<TRIPOS>ATOM
      1 C          61.2108   87.9117    9.6168 C.3     1  UNL1        0.0782
      2 C          61.2717   87.0786    8.3710 C.3     1  UNL1        0.0372
      3 C          62.0781   85.8140    8.3530 C.3     1  UNL1        0.0741
      4 N          62.8237   85.3824    9.5809 N.3     1  UNL1       -0.2689
      5 C          62.7629   86.2155   10.8269 C.3     1  UNL1        0.0741
      6 C          61.9564   87.4801   10.8448 C.3     1  UNL1        0.0372
      7 C          59.6886   89.6271    8.3960 C.3     1  UNL1        0.1148
      8 N          60.4043   89.1763    9.6348 N.am    1  UNL1       -0.2790
      9 C          60.3136   89.9902   10.8916 C.2     1  UNL1        0.2301
     10 O          59.5071   91.2548   10.9095 O.2     1  UNL1       -0.2745
     11 C          61.0293   89.5394   12.1303 C.3     1  UNL1        0.1116
     12 C          62.3125   90.2009   12.5378 C.ar    1  UNL1       -0.0130
     13 C          62.8411   90.0188   13.9297 C.ar    1  UNL1       -0.0022
     14 C          64.1242   90.6802   14.3371 C.ar    1  UNL1        0.0190
     15 C          64.8787   91.5238   13.3527 C.ar    1  UNL1        0.0862
     16 C          64.3502   91.7059   11.9608 C.ar    1  UNL1        0.0190
     17 C          63.0670   91.0444   11.5534 C.ar    1  UNL1       -0.0022
     18 N          66.1619   92.1852   13.7602 N.ar    1  UNL1       -0.1886
     19 C          67.5437   91.6566   13.5127 C.ar    1  UNL1        0.2258
     20 N          68.5244   92.6360   14.0862 N.ar    1  UNL1       -0.1045
     21 N          67.7487   93.7700   14.6882 N.ar    1  UNL1       -0.0222
     22 N          66.2886   93.4914   14.4867 N.ar    1  UNL1       -0.0385
     23 C          63.6302   84.1178    9.5630 C.3     1  UNL1        0.0991
     24 C          63.3132   83.0124   10.5261 C.ar    1  UNL1       -0.0062
     25 C          63.4858   81.5820   10.1091 C.ar    1  UNL1       -0.0030
     26 C          63.1689   80.4765   11.0723 C.ar    1  UNL1        0.0036
     27 C          62.6794   80.8016   12.4524 C.ar    1  UNL1        0.0714
     28 C          62.5068   82.2322   12.8693 C.ar    1  UNL1        0.0036
     29 C          62.8237   83.3375   11.9062 C.ar    1  UNL1       -0.0030
     30 C          62.3624   79.6962   13.4155 C.3     1  UNL1        0.4186
     31 F          62.0455   78.5908   14.3786 F       1  UNL1       -0.1659
     32 F          62.5431   78.6889   12.3188 F       1  UNL1       -0.1659
     33 F          62.1818   80.7035   14.5121 F       1  UNL1       -0.1659
@<TRIPOS>BOND
     1     7     8    1
     2     8     9   am
     3     9    10    2
     4     9    11    1
     5    11    12    1
     6    12    13   ar
     7    13    14   ar
     8    14    15   ar
     9    15    18    1
    10    18    19   ar
    11    19    20   ar
    12    20    21   ar
    13    21    22   ar
    14    15    16   ar
    15    16    17   ar
    16     8     1    1
    17     1     2    1
    18     2     3    1
    19     3     4    1
    20     4    23    1
    21    23    24    1
    22    24    25   ar
    23    25    26   ar
    24    26    27   ar
    25    27    30    1
    26    30    31    1
    27    30    32    1
    28    30    33    1
    29    27    28   ar
    30    28    29   ar
    31     4     5    1
    32     5     6    1
    33    17    12   ar
    34     6     1    1
    35    22    18   ar
    36    29    24   ar
@<TRIPOS>MOLECULE
*****
 33 36 0 0 0
SMALL
GASTEIGER

@<TRIPOS>ATOM
      1 C          61.1328   92.3120    3.0987 C.3     1  UNL1        0.0782
      2 C          61.7543   91.1984    3.8882 C.3     1  UNL1        0.0372
      3 C          60.9619   90.5017    4.9544 C.3     1  UNL1        0.0741
      4 N          59.5479   90.9188    5.2311 N.3     1  UNL1       -0.2689
      5 C          58.9262   92.0325    4.4416 C.3     1  UNL1        0.0741
      6 C          59.7187   92.7291    3.3754 C.3     1  UNL1        0.0372
      7 C          63.1996   93.7161    2.3869 C.3     1  UNL1        0.1148
      8 N          61.9252   93.0087    2.0326 N.am    1  UNL1       -0.2790
      9 C          61.4433   92.9978    0.6121 C.2     1  UNL1        0.2301
     10 O          62.2358   93.6945   -0.4541 O.2     1  UNL1       -0.2745
     11 C          60.1690   92.2904    0.2578 C.3     1  UNL1        0.1116
     12 C          59.0087   93.0657   -0.2923 C.ar    1  UNL1       -0.0130
     13 C          57.8542   92.3431   -0.9207 C.ar    1  UNL1       -0.0022
     14 C          56.6939   93.1184   -1.4708 C.ar    1  UNL1        0.0190
     15 C          56.6882   94.6164   -1.3926 C.ar    1  UNL1        0.0862
     16 C          57.8427   95.3390   -0.7643 C.ar    1  UNL1        0.0190
     17 C          59.0030   94.5637   -0.2141 C.ar    1  UNL1       -0.0022
     18 N          55.5279   95.3917   -1.9428 N.ar    1  UNL1       -0.1886
     19 C          54.5874   96.2514   -1.1515 C.ar    1  UNL1        0.2258
     20 N          53.5826   96.8345   -2.1004 N.ar    1  UNL1       -0.1045
     21 N          53.9022   96.3350   -3.4783 N.ar    1  UNL1       -0.0222
     22 N          55.1045   95.4433   -3.3809 N.ar    1  UNL1       -0.0385
     23 C          58.7554   90.2221    6.2972 C.3     1  UNL1        0.0991
     24 C          59.4261   89.2353    7.2062 C.ar    1  UNL1       -0.0062
     25 C          59.3449   87.7672    6.9099 C.ar    1  UNL1       -0.0030
     26 C          60.0157   86.7803    7.8189 C.ar    1  UNL1        0.0036
     27 C          60.7677   87.2617    9.0242 C.ar    1  UNL1        0.0714
     28 C          60.8489   88.7299    9.3205 C.ar    1  UNL1        0.0036
     29 C          60.1781   89.7167    8.4115 C.ar    1  UNL1       -0.0030
     30 C          61.4384   86.2749    9.9332 C.3     1  UNL1        0.4186
     31 F          62.1092   85.2881   10.8421 F       1  UNL1       -0.1659
     32 F          62.3060   85.8187    8.7978 F       1  UNL1       -0.1659
     33 F          60.5709   86.7310   11.0686 F       1  UNL1       -0.1659
@<TRIPOS>BOND
     1     7     8    1
     2     8     9   am
     3     9    10    2
     4     9    11    1
     5    11    12    1
     6    12    13   ar
     7    13    14   ar
     8    14    15   ar
     9    15    18    1
    10    18    19   ar
    11    19    20   ar
    12    20    21   ar
    13    21    22   ar
    14    15    16   ar
    15    16    17   ar
    16     8     1    1
    17     1     2    1
    18     2     3    1
    19     3     4    1
    20     4    23    1
    21    23    24    1
    22    24    25   ar
    23    25    26   ar
    24    26    27   ar
    25    27    30    1
    26    30    31    1
    27    30    32    1
    28    30    33    1
    29    27    28   ar
    30    28    29   ar
    31     4     5    1
    32     5     6    1
    33    17    12   ar
    34     6     1    1
    35    22    18   ar
    36    29    24   ar
