@<TRIPOS>MOLECULE
*****
 34 36 0 0 0
SMALL
GASTEIGER

@<TRIPOS>ATOM
      1 C          63.0917   84.9109    7.9133 C.3     1  UNL1        0.0206
      2 C          62.8684   84.9150    9.3966 C.3     1  UNL1        0.0956
      3 C          63.6023   83.9396   10.2682 C.3     1  UNL1        0.0900
      4 N          63.3790   83.9438   11.7515 N.3     1  UNL1       -0.2698
      5 C          62.4218   84.9233   12.3631 C.3     1  UNL1        0.0915
      6 C          61.6878   85.8987   11.4915 C.3     1  UNL1        0.1131
      7 N          61.9111   85.8946   10.0082 N.3     1  UNL1       -0.1541
      8 S          61.1771   86.8701    9.1365 S.O2    1  UNL1        0.0633
      9 O          60.2497   85.7772    8.6944 O.2     1  UNL1       -0.1528
     10 O          62.1045   87.9630    9.5786 O.2     1  UNL1       -0.1528
     11 C          60.4431   87.8455    8.2649 C.ar    1  UNL1        0.1222
     12 C          59.5440   87.3464    7.1729 C.ar    1  UNL1        0.0197
     13 C          58.8100   88.3219    6.3012 C.ar    1  UNL1       -0.0004
     14 C          58.9751   89.7964    6.5216 C.ar    1  UNL1        0.0099
     15 C          59.8742   90.2954    7.6136 C.ar    1  UNL1       -0.0004
     16 C          60.6082   89.3200    8.4853 C.ar    1  UNL1        0.0197
     17 C          58.2411   90.7718    5.6500 C.3     1  UNL1        0.1945
     18 C          57.5071   91.7472    4.7783 C.3     1  UNL1        0.0428
     19 O          56.9332   90.2421    6.1586 O.3     1  UNL1       -0.3751
     20 H          57.0988   89.5332    6.7997 H       1  UNL1        0.2110
     21 C          59.5490   91.3014    5.1413 C.3     1  UNL1        0.4230
     22 F          60.8570   91.8311    4.6326 F       1  UNL1       -0.1673
     23 F          60.4114   90.0805    5.0169 F       1  UNL1       -0.1673
     24 F          58.9864   92.6920    5.1427 F       1  UNL1       -0.1673
     25 C          64.1131   82.9683   12.6232 C.3     1  UNL1        0.0807
     26 C          63.3479   81.9752   13.4468 C.3     1  UNL1        0.0832
     27 C          63.1639   81.1114   12.2344 C.3     1  UNL1        0.0100
     28 C          62.3988   80.1183   13.0581 C.3     1  UNL1        0.0010
     29 C          62.5827   80.9822   14.2705 C.3     1  UNL1        0.0100
     30 C          63.5318   82.8391   14.6592 C.2     1  UNL1        0.2198
     31 N          62.4511   82.9156   15.6966 N.am    1  UNL1       -0.3288
     32 O          64.7965   83.6265   14.8342 O.2     1  UNL1       -0.2753
     33 H          61.6211   82.3988   15.5818 H       1  UNL1        0.1449
     34 H          62.5719   83.4826   16.4923 H       1  UNL1        0.1449
@<TRIPOS>BOND
     1     2     1    1
     2     2     3    1
     3     3     4    1
     4     4    25    1
     5    25    26    1
     6    26    30    1
     7    30    31   am
     8    30    32    2
     9    26    27    1
    10    27    28    1
    11    28    29    1
    12     4     5    1
    13     5     6    1
    14     6     7    1
    15     7     8    1
    16     8     9    2
    17     8    10    2
    18     8    11    1
    19    11    12   ar
    20    12    13   ar
    21    13    14   ar
    22    14    17    1
    23    17    18    1
    24    17    19    1
    25    17    21    1
    26    21    22    1
    27    21    23    1
    28    21    24    1
    29    14    15   ar
    30    15    16   ar
    31     7     2    1
    32    16    11   ar
    33    29    26    1
    34    31    33    1
    35    31    34    1
    36    19    20    1
@<TRIPOS>MOLECULE
*****
 34 36 0 0 0
SMALL
GASTEIGER

@<TRIPOS>ATOM
      1 C          62.5494   88.5967   11.5072 C.3     1  UNL1        0.0206
      2 C          63.3990   89.1202   12.6271 C.3     1  UNL1        0.0956
      3 C          63.7712   90.5726   12.6704 C.3     1  UNL1        0.0900
      4 N          64.6208   91.0961   13.7903 N.3     1  UNL1       -0.2698
      5 C          65.0980   90.1672   14.8670 C.3     1  UNL1        0.0915
      6 C          64.7258   88.7148   14.8237 C.3     1  UNL1        0.1131
      7 N          63.8762   88.1913   13.7038 N.3     1  UNL1       -0.1541
      8 S          63.5040   86.7388   13.6606 S.O2    1  UNL1        0.0633
      9 O          63.8664   86.6029   15.1098 O.2     1  UNL1       -0.1528
     10 O          63.1415   86.8748   12.2115 O.2     1  UNL1       -0.1528
     11 C          63.1317   85.2864   13.6175 C.ar    1  UNL1        0.1222
     12 C          62.9256   84.5267   14.8943 C.ar    1  UNL1        0.0197
     13 C          62.5533   83.0743   14.8511 C.ar    1  UNL1       -0.0004
     14 C          62.3872   82.3815   13.5311 C.ar    1  UNL1        0.0099
     15 C          62.5934   83.1412   12.2543 C.ar    1  UNL1       -0.0004
     16 C          62.9656   84.5936   12.2974 C.ar    1  UNL1        0.0197
     17 C          62.0150   80.9291   13.4880 C.3     1  UNL1        0.1945
     18 C          61.6428   79.4766   13.4448 C.3     1  UNL1        0.0428
     19 O          61.0017   81.1567   14.5703 O.3     1  UNL1       -0.3751
     20 H          61.0102   82.0912   14.8299 H       1  UNL1        0.2110
     21 C          63.0283   80.7016   12.4057 C.3     1  UNL1        0.4230
     22 F          64.0416   80.4740   11.3233 F       1  UNL1       -0.1673
     23 F          62.2045   80.5700   11.1590 F       1  UNL1       -0.1673
     24 F          64.1301   80.7804   13.4206 F       1  UNL1       -0.1673
     25 C          64.9931   92.5486   13.8335 C.3     1  UNL1        0.0807
     26 C          66.4005   92.9527   14.1586 C.3     1  UNL1        0.0832
     27 C          66.1073   92.7972   15.6214 C.3     1  UNL1        0.0100
     28 C          67.5148   93.2013   15.9464 C.3     1  UNL1        0.0010
     29 C          67.8080   93.3568   14.4836 C.3     1  UNL1        0.0100
     30 C          66.6937   93.1082   12.6957 C.2     1  UNL1        0.2198
     31 N          65.8308   93.9951   11.8480 N.am    1  UNL1       -0.3288
     32 O          67.8499   92.3769   12.0806 O.2     1  UNL1       -0.2753
     33 H          65.0719   94.4752   12.2517 H       1  UNL1        0.1449
     34 H          66.0232   94.0972   10.8879 H       1  UNL1        0.1449
@<TRIPOS>BOND
     1     2     1    1
     2     2     3    1
     3     3     4    1
     4     4    25    1
     5    25    26    1
     6    26    30    1
     7    30    31   am
     8    30    32    2
     9    26    27    1
    10    27    28    1
    11    28    29    1
    12     4     5    1
    13     5     6    1
    14     6     7    1
    15     7     8    1
    16     8     9    2
    17     8    10    2
    18     8    11    1
    19    11    12   ar
    20    12    13   ar
    21    13    14   ar
    22    14    17    1
    23    17    18    1
    24    17    19    1
    25    17    21    1
    26    21    22    1
    27    21    23    1
    28    21    24    1
    29    14    15   ar
    30    15    16   ar
    31     7     2    1
    32    16    11   ar
    33    29    26    1
    34    31    33    1
    35    31    34    1
    36    19    20    1
@<TRIPOS>MOLECULE
*****
 34 36 0 0 0
SMALL
GASTEIGER

@<TRIPOS>ATOM
      1 C          62.7133   88.4439   11.2196 C.3     1  UNL1        0.0206
      2 C          63.4407   88.8739   12.4590 C.3     1  UNL1        0.0956
      3 C          63.7047   90.3295   12.7068 C.3     1  UNL1        0.0900
      4 N          64.4320   90.7595   13.9462 N.3     1  UNL1       -0.2698
      5 C          64.8955   89.7339   14.9377 C.3     1  UNL1        0.0915
      6 C          64.6315   88.2783   14.6899 C.3     1  UNL1        0.1131
      7 N          63.9041   87.8483   13.4506 N.3     1  UNL1       -0.1541
      8 S          63.6402   86.3926   13.2028 S.O2    1  UNL1        0.0633
      9 O          64.6028   86.0321   14.2952 O.2     1  UNL1       -0.1528
     10 O          62.6776   86.7530   12.1104 O.2     1  UNL1       -0.1528
     11 C          63.3763   84.9369   12.9550 C.ar    1  UNL1        0.1222
     12 C          63.7760   83.9172   13.9799 C.ar    1  UNL1        0.0197
     13 C          63.5121   82.4615   13.7321 C.ar    1  UNL1       -0.0004
     14 C          62.8485   82.0256   12.4595 C.ar    1  UNL1        0.0099
     15 C          62.4488   83.0453   11.4346 C.ar    1  UNL1       -0.0004
     16 C          62.7127   84.5009   11.6824 C.ar    1  UNL1        0.0197
     17 C          62.5846   80.5699   12.2118 C.3     1  UNL1        0.1945
     18 C          62.3206   79.1142   11.9641 C.3     1  UNL1        0.0428
     19 O          63.2364   80.6809   10.8654 O.3     1  UNL1       -0.3751
     20 H          63.5378   81.5923   10.7263 H       1  UNL1        0.2110
     21 C          61.9327   80.4590   13.5582 C.3     1  UNL1        0.4230
     22 F          61.2808   80.3480   14.9046 F       1  UNL1       -0.1673
     23 F          60.6904   81.2896   13.4295 F       1  UNL1       -0.1673
     24 F          63.0506   79.5752   14.0266 F       1  UNL1       -0.1673
     25 C          64.6960   92.2152   14.1939 C.3     1  UNL1        0.0807
     26 C          66.0932   92.6885   14.4656 C.3     1  UNL1        0.0832
     27 C          65.8370   92.5983   15.9408 C.3     1  UNL1        0.0100
     28 C          67.2342   93.0715   16.2124 C.3     1  UNL1        0.0010
     29 C          67.4904   93.1617   14.7372 C.3     1  UNL1        0.0100
     30 C          66.3495   92.7787   12.9904 C.2     1  UNL1        0.2198
     31 N          65.3316   93.4134   12.0898 N.am    1  UNL1       -0.3288
     32 O          67.6235   92.2341   12.4158 O.2     1  UNL1       -0.2753
     33 H          64.4954   93.7708   12.4669 H       1  UNL1        0.1449
     34 H          65.4998   93.4726   11.1216 H       1  UNL1        0.1449
@<TRIPOS>BOND
     1     2     1    1
     2     2     3    1
     3     3     4    1
     4     4    25    1
     5    25    26    1
     6    26    30    1
     7    30    31   am
     8    30    32    2
     9    26    27    1
    10    27    28    1
    11    28    29    1
    12     4     5    1
    13     5     6    1
    14     6     7    1
    15     7     8    1
    16     8     9    2
    17     8    10    2
    18     8    11    1
    19    11    12   ar
    20    12    13   ar
    21    13    14   ar
    22    14    17    1
    23    17    18    1
    24    17    19    1
    25    17    21    1
    26    21    22    1
    27    21    23    1
    28    21    24    1
    29    14    15   ar
    30    15    16   ar
    31     7     2    1
    32    16    11   ar
    33    29    26    1
    34    31    33    1
    35    31    34    1
    36    19    20    1
@<TRIPOS>MOLECULE
*****
 34 36 0 0 0
SMALL
GASTEIGER

@<TRIPOS>ATOM
      1 C          62.3216   88.4839   11.2505 C.3     1  UNL1        0.0206
      2 C          63.2301   89.0705   12.2899 C.3     1  UNL1        0.0956
      3 C          63.5891   90.5259   12.2371 C.3     1  UNL1        0.0900
      4 N          64.4977   91.1125   13.2766 N.3     1  UNL1       -0.2698
      5 C          65.0473   90.2437   14.3688 C.3     1  UNL1        0.0915
      6 C          64.6883   88.7882   14.4216 C.3     1  UNL1        0.1131
      7 N          63.7798   88.2016   13.3821 N.3     1  UNL1       -0.1541
      8 S          63.4208   86.7461   13.4350 S.O2    1  UNL1        0.0633
      9 O          63.1006   86.7719   11.9698 O.2     1  UNL1       -0.1528
     10 O          63.7410   86.7203   14.9002 O.2     1  UNL1       -0.1528
     11 C          63.0619   85.2907   13.4878 C.ar    1  UNL1        0.1222
     12 C          62.8200   84.5313   12.2170 C.ar    1  UNL1        0.0197
     13 C          62.4611   83.0758   12.2699 C.ar    1  UNL1       -0.0004
     14 C          62.3440   82.3798   13.5934 C.ar    1  UNL1        0.0099
     15 C          62.5858   83.1392   14.8641 C.ar    1  UNL1       -0.0004
     16 C          62.9447   84.5946   14.8114 C.ar    1  UNL1        0.0197
     17 C          61.9850   80.9243   13.6462 C.3     1  UNL1        0.1945
     18 C          61.6261   79.4688   13.6989 C.3     1  UNL1        0.0428
     19 O          60.9682   81.2137   14.7103 O.3     1  UNL1       -0.3751
     20 H          60.9679   82.1634   14.9075 H       1  UNL1        0.2110
     21 C          63.0018   80.6350   12.5821 C.3     1  UNL1        0.4230
     22 F          64.0187   80.3456   11.5179 F       1  UNL1       -0.1673
     23 F          62.1822   80.4328   11.3422 F       1  UNL1       -0.1673
     24 F          64.1002   80.7711   13.5946 F       1  UNL1       -0.1673
     25 C          64.8566   92.5680   13.2237 C.3     1  UNL1        0.0807
     26 C          65.9906   93.0298   12.3571 C.3     1  UNL1        0.0832
     27 C          65.0738   93.0536   11.1702 C.3     1  UNL1        0.0100
     28 C          66.2077   93.5154   10.3036 C.3     1  UNL1        0.0010
     29 C          67.1245   93.4917   11.4906 C.3     1  UNL1        0.0100
     30 C          66.9074   93.0061   13.5441 C.2     1  UNL1        0.2198
     31 N          66.4516   93.5744   14.8553 N.am    1  UNL1       -0.3288
     32 O          68.2799   92.4140   13.4199 O.2     1  UNL1       -0.2753
     33 H          65.5507   93.9630   14.9368 H       1  UNL1        0.1449
     34 H          67.0533   93.5588   15.6343 H       1  UNL1        0.1449
@<TRIPOS>BOND
     1     2     1    1
     2     2     3    1
     3     3     4    1
     4     4    25    1
     5    25    26    1
     6    26    30    1
     7    30    31   am
     8    30    32    2
     9    26    27    1
    10    27    28    1
    11    28    29    1
    12     4     5    1
    13     5     6    1
    14     6     7    1
    15     7     8    1
    16     8     9    2
    17     8    10    2
    18     8    11    1
    19    11    12   ar
    20    12    13   ar
    21    13    14   ar
    22    14    17    1
    23    17    18    1
    24    17    19    1
    25    17    21    1
    26    21    22    1
    27    21    23    1
    28    21    24    1
    29    14    15   ar
    30    15    16   ar
    31     7     2    1
    32    16    11   ar
    33    29    26    1
    34    31    33    1
    35    31    34    1
    36    19    20    1
@<TRIPOS>MOLECULE
*****
 34 36 0 0 0
SMALL
GASTEIGER

@<TRIPOS>ATOM
      1 C          63.4998   87.8160   16.5432 C.3     1  UNL1        0.0206
      2 C          63.2667   86.8264   15.4403 C.3     1  UNL1        0.0956
      3 C          62.7691   85.4484   15.7619 C.3     1  UNL1        0.0900
      4 N          62.5361   84.4587   14.6590 N.3     1  UNL1       -0.2698
      5 C          62.8006   84.8471   13.2346 C.3     1  UNL1        0.0915
      6 C          63.2982   86.2251   12.9130 C.3     1  UNL1        0.1131
      7 N          63.5313   87.2147   14.0158 N.3     1  UNL1       -0.1541
      8 S          64.0289   88.5928   13.6942 S.O2    1  UNL1        0.0633
      9 O          65.1755   88.3999   14.6418 O.2     1  UNL1       -0.1528
     10 O          62.8823   88.7857   12.7465 O.2     1  UNL1       -0.1528
     11 C          64.5266   89.9708   13.3726 C.ar    1  UNL1        0.1222
     12 C          65.5580   90.6189   14.2477 C.ar    1  UNL1        0.0197
     13 C          66.0557   91.9970   13.9261 C.ar    1  UNL1       -0.0004
     14 C          65.5218   92.7268   12.7293 C.ar    1  UNL1        0.0099
     15 C          64.4904   92.0786   11.8541 C.ar    1  UNL1       -0.0004
     16 C          63.9927   90.7007   12.1757 C.ar    1  UNL1        0.0197
     17 C          66.0195   94.1048   12.4077 C.3     1  UNL1        0.1945
     18 C          66.5172   95.4828   12.0860 C.3     1  UNL1        0.0428
     19 O          65.8872   94.4895   13.8514 O.3     1  UNL1       -0.3751
     20 H          65.5552   93.7323   14.3587 H       1  UNL1        0.2110
     21 C          66.1518   93.7200   10.9640 C.3     1  UNL1        0.4230
     22 F          66.2842   93.3352    9.5202 F       1  UNL1       -0.1673
     23 F          67.1832   92.6309   10.9716 F       1  UNL1       -0.1673
     24 F          65.1218   94.7466   10.5959 F       1  UNL1       -0.1673
     25 C          62.0384   83.0807   14.9807 C.3     1  UNL1        0.0807
     26 C          62.5777   81.8957   14.2357 C.3     1  UNL1        0.0832
     27 C          61.1954   81.3195   14.1515 C.3     1  UNL1        0.0100
     28 C          61.7346   80.1345   13.4065 C.3     1  UNL1        0.0010
     29 C          63.1170   80.7107   13.4907 C.3     1  UNL1        0.0100
     30 C          63.9601   82.4719   14.3199 C.2     1  UNL1        0.2198
     31 N          64.5624   82.7838   15.6577 N.am    1  UNL1       -0.3288
     32 O          64.7401   82.7361   13.0663 O.2     1  UNL1       -0.2753
     33 H          64.0504   82.6104   16.4806 H       1  UNL1        0.1449
     34 H          65.4697   83.1620   15.7130 H       1  UNL1        0.1449
@<TRIPOS>BOND
     1     2     1    1
     2     2     3    1
     3     3     4    1
     4     4    25    1
     5    25    26    1
     6    26    30    1
     7    30    31   am
     8    30    32    2
     9    26    27    1
    10    27    28    1
    11    28    29    1
    12     4     5    1
    13     5     6    1
    14     6     7    1
    15     7     8    1
    16     8     9    2
    17     8    10    2
    18     8    11    1
    19    11    12   ar
    20    12    13   ar
    21    13    14   ar
    22    14    17    1
    23    17    18    1
    24    17    19    1
    25    17    21    1
    26    21    22    1
    27    21    23    1
    28    21    24    1
    29    14    15   ar
    30    15    16   ar
    31     7     2    1
    32    16    11   ar
    33    29    26    1
    34    31    33    1
    35    31    34    1
    36    19    20    1
@<TRIPOS>MOLECULE
*****
 34 36 0 0 0
SMALL
GASTEIGER

@<TRIPOS>ATOM
      1 C          63.0716   88.5396   16.7624 C.3     1  UNL1        0.0206
      2 C          63.7870   89.2583   15.6571 C.3     1  UNL1        0.0956
      3 C          64.1680   90.6995   15.8229 C.3     1  UNL1        0.0900
      4 N          64.8834   91.4182   14.7176 N.3     1  UNL1       -0.2698
      5 C          65.2176   90.6956   13.4463 C.3     1  UNL1        0.0915
      6 C          64.8365   89.2544   13.2805 C.3     1  UNL1        0.1131
      7 N          64.1212   88.5357   14.3858 N.3     1  UNL1       -0.1541
      8 S          63.7401   87.0944   14.2199 S.O2    1  UNL1        0.0633
      9 O          63.1169   87.4120   12.8930 O.2     1  UNL1       -0.1528
     10 O          64.3634   86.7768   15.5468 O.2     1  UNL1       -0.1528
     11 C          63.3590   85.6532   14.0539 C.ar    1  UNL1        0.1222
     12 C          63.2365   84.7664   15.2575 C.ar    1  UNL1        0.0197
     13 C          62.8554   83.3251   15.0915 C.ar    1  UNL1       -0.0004
     14 C          62.5969   82.7706   13.7219 C.ar    1  UNL1        0.0099
     15 C          62.7194   83.6574   12.5184 C.ar    1  UNL1       -0.0004
     16 C          63.1005   85.0987   12.6843 C.ar    1  UNL1        0.0197
     17 C          62.2158   81.3294   13.5560 C.3     1  UNL1        0.1945
     18 C          61.8347   79.8881   13.3900 C.3     1  UNL1        0.0428
     19 O          61.2749   81.4443   14.7185 O.3     1  UNL1       -0.3751
     20 H          61.3044   82.3478   15.0703 H       1  UNL1        0.2110
     21 C          63.1567   81.2145   12.3935 C.3     1  UNL1        0.4230
     22 F          64.0976   81.0996   11.2308 F       1  UNL1       -0.1673
     23 F          62.2601   81.2822   11.1928 F       1  UNL1       -0.1673
     24 F          64.3154   81.1161   13.3410 F       1  UNL1       -0.1673
     25 C          65.2644   92.8595   14.8835 C.3     1  UNL1        0.0807
     26 C          66.7114   93.2530   14.9226 C.3     1  UNL1        0.0832
     27 C          66.8168   92.7264   16.3231 C.3     1  UNL1        0.0100
     28 C          68.2637   93.1199   16.3622 C.3     1  UNL1        0.0010
     29 C          68.1583   93.6465   14.9616 C.3     1  UNL1        0.0100
     30 C          66.6060   93.7796   13.5220 C.2     1  UNL1        0.2198
     31 N          66.9334   92.8898   12.3596 N.am    1  UNL1       -0.3288
     32 O          66.1732   95.1959   13.2838 O.2     1  UNL1       -0.2753
     33 H          67.2174   91.9603   12.5159 H       1  UNL1        0.1449
     34 H          66.8642   93.2355   11.4404 H       1  UNL1        0.1449
@<TRIPOS>BOND
     1     2     1    1
     2     2     3    1
     3     3     4    1
     4     4    25    1
     5    25    26    1
     6    26    30    1
     7    30    31   am
     8    30    32    2
     9    26    27    1
    10    27    28    1
    11    28    29    1
    12     4     5    1
    13     5     6    1
    14     6     7    1
    15     7     8    1
    16     8     9    2
    17     8    10    2
    18     8    11    1
    19    11    12   ar
    20    12    13   ar
    21    13    14   ar
    22    14    17    1
    23    17    18    1
    24    17    19    1
    25    17    21    1
    26    21    22    1
    27    21    23    1
    28    21    24    1
    29    14    15   ar
    30    15    16   ar
    31     7     2    1
    32    16    11   ar
    33    29    26    1
    34    31    33    1
    35    31    34    1
    36    19    20    1
@<TRIPOS>MOLECULE
*****
 34 36 0 0 0
SMALL
GASTEIGER

@<TRIPOS>ATOM
      1 C          64.3616   86.5742   15.7173 C.3     1  UNL1        0.0206
      2 C          64.0666   87.6482   14.7126 C.3     1  UNL1        0.0956
      3 C          64.2226   89.0915   15.0900 C.3     1  UNL1        0.0900
      4 N          63.9276   90.1656   14.0853 N.3     1  UNL1       -0.2698
      5 C          63.4767   89.7963   12.7032 C.3     1  UNL1        0.0915
      6 C          63.3208   88.3530   12.3258 C.3     1  UNL1        0.1131
      7 N          63.6157   87.2789   13.3305 N.3     1  UNL1       -0.1541
      8 S          63.4598   85.8356   12.9530 S.O2    1  UNL1        0.0633
      9 O          62.2738   86.1858   12.1041 O.2     1  UNL1       -0.1528
     10 O          64.6458   85.4853   13.8020 O.2     1  UNL1       -0.1528
     11 C          63.3038   84.3923   12.5756 C.ar    1  UNL1        0.1222
     12 C          62.4199   83.4952   13.3905 C.ar    1  UNL1        0.0197
     13 C          62.2640   82.0518   13.0129 C.ar    1  UNL1       -0.0004
     14 C          62.9918   81.5056   11.8205 C.ar    1  UNL1        0.0099
     15 C          63.8757   82.4027   11.0056 C.ar    1  UNL1       -0.0004
     16 C          64.0317   83.8460   11.3831 C.ar    1  UNL1        0.0197
     17 C          62.8358   80.0623   11.4431 C.3     1  UNL1        0.1945
     18 C          62.6798   78.6190   11.0656 C.3     1  UNL1        0.0428
     19 O          62.8752   80.4378    9.9914 O.3     1  UNL1       -0.3751
     20 H          62.9788   81.3987    9.9086 H       1  UNL1        0.2110
     21 C          62.7965   79.6869   12.8947 C.3     1  UNL1        0.4230
     22 F          62.7572   79.3115   14.3465 F       1  UNL1       -0.1673
     23 F          64.0255   80.3273   13.4687 F       1  UNL1       -0.1673
     24 F          61.5200   78.9332   12.6653 F       1  UNL1       -0.1673
     25 C          64.0836   91.6089   14.4628 C.3     1  UNL1        0.0807
     26 C          65.4300   92.2647   14.3792 C.3     1  UNL1        0.0832
     27 C          65.4414   92.0521   12.8944 C.3     1  UNL1        0.0100
     28 C          66.7878   92.7079   12.8108 C.3     1  UNL1        0.0010
     29 C          66.7765   92.9205   14.2956 C.3     1  UNL1        0.0100
     30 C          65.4187   92.4774   15.8640 C.2     1  UNL1        0.2198
     31 N          66.6539   92.9651   16.5613 N.am    1  UNL1       -0.3288
     32 O          64.1720   92.2024   16.6515 O.2     1  UNL1       -0.2753
     33 H          67.4722   93.1456   16.0444 H       1  UNL1        0.1449
     34 H          66.6465   93.1046   17.5358 H       1  UNL1        0.1449
@<TRIPOS>BOND
     1     2     1    1
     2     2     3    1
     3     3     4    1
     4     4    25    1
     5    25    26    1
     6    26    30    1
     7    30    31   am
     8    30    32    2
     9    26    27    1
    10    27    28    1
    11    28    29    1
    12     4     5    1
    13     5     6    1
    14     6     7    1
    15     7     8    1
    16     8     9    2
    17     8    10    2
    18     8    11    1
    19    11    12   ar
    20    12    13   ar
    21    13    14   ar
    22    14    17    1
    23    17    18    1
    24    17    19    1
    25    17    21    1
    26    21    22    1
    27    21    23    1
    28    21    24    1
    29    14    15   ar
    30    15    16   ar
    31     7     2    1
    32    16    11   ar
    33    29    26    1
    34    31    33    1
    35    31    34    1
    36    19    20    1
@<TRIPOS>MOLECULE
*****
 34 36 0 0 0
SMALL
GASTEIGER

@<TRIPOS>ATOM
      1 C          64.7676   88.6179   14.8283 C.3     1  UNL1        0.0206
      2 C          63.9203   87.9149   13.8096 C.3     1  UNL1        0.0956
      3 C          63.3977   86.5373   14.0907 C.3     1  UNL1        0.0900
      4 N          62.5503   85.8343   13.0719 N.3     1  UNL1       -0.2698
      5 C          62.2257   86.5088   11.7721 C.3     1  UNL1        0.0915
      6 C          62.7483   87.8864   11.4911 C.3     1  UNL1        0.1131
      7 N          63.5957   88.5894   12.5098 N.3     1  UNL1       -0.1541
      8 S          64.1183   89.9671   12.2287 S.O2    1  UNL1        0.0633
      9 O          63.4559   89.9438   10.8831 O.2     1  UNL1       -0.1528
     10 O          64.7808   89.9904   13.5742 O.2     1  UNL1       -0.1528
     11 C          64.6410   91.3447   11.9475 C.ar    1  UNL1        0.1222
     12 C          65.4534   92.0644   12.9829 C.ar    1  UNL1        0.0197
     13 C          65.9760   93.4421   12.7017 C.ar    1  UNL1       -0.0004
     14 C          65.6862   94.0999   11.3852 C.ar    1  UNL1        0.0099
     15 C          64.8738   93.3802   10.3498 C.ar    1  UNL1       -0.0004
     16 C          64.3512   92.0026   10.6310 C.ar    1  UNL1        0.0197
     17 C          66.2088   95.4775   11.1040 C.3     1  UNL1        0.1945
     18 C          66.7315   96.8551   10.8228 C.3     1  UNL1        0.0428
     19 O          65.7918   95.9158   12.4765 O.3     1  UNL1       -0.3751
     20 H          65.3832   95.1704   12.9438 H       1  UNL1        0.2110
     21 C          66.6259   95.0391    9.7315 C.3     1  UNL1        0.4230
     22 F          67.0430   94.6007    8.3589 F       1  UNL1       -0.1673
     23 F          67.6653   93.9881    9.9863 F       1  UNL1       -0.1673
     24 F          65.6586   96.0130    9.1265 F       1  UNL1       -0.1673
     25 C          62.0276   84.4566   13.3531 C.3     1  UNL1        0.0807
     26 C          62.9096   83.2620   13.1407 C.3     1  UNL1        0.0832
     27 C          63.2989   83.7893   11.7914 C.3     1  UNL1        0.0100
     28 C          64.1809   82.5948   11.5790 C.3     1  UNL1        0.0010
     29 C          63.7916   82.0675   12.9283 C.3     1  UNL1        0.0100
     30 C          62.5204   82.7348   14.4899 C.2     1  UNL1        0.2198
     31 N          62.1603   81.2880   14.6544 N.am    1  UNL1       -0.3288
     32 O          62.4913   83.6543   15.6746 O.2     1  UNL1       -0.2753
     33 H          62.1794   80.6845   13.8768 H       1  UNL1        0.1449
     34 H          61.9048   80.9419   15.5400 H       1  UNL1        0.1449
@<TRIPOS>BOND
     1     2     1    1
     2     2     3    1
     3     3     4    1
     4     4    25    1
     5    25    26    1
     6    26    30    1
     7    30    31   am
     8    30    32    2
     9    26    27    1
    10    27    28    1
    11    28    29    1
    12     4     5    1
    13     5     6    1
    14     6     7    1
    15     7     8    1
    16     8     9    2
    17     8    10    2
    18     8    11    1
    19    11    12   ar
    20    12    13   ar
    21    13    14   ar
    22    14    17    1
    23    17    18    1
    24    17    19    1
    25    17    21    1
    26    21    22    1
    27    21    23    1
    28    21    24    1
    29    14    15   ar
    30    15    16   ar
    31     7     2    1
    32    16    11   ar
    33    29    26    1
    34    31    33    1
    35    31    34    1
    36    19    20    1
@<TRIPOS>MOLECULE
*****
 34 36 0 0 0
SMALL
GASTEIGER

@<TRIPOS>ATOM
      1 C          56.9196   93.1756   -3.1655 C.3     1  UNL1        0.0206
      2 C          56.2550   94.4009   -2.6114 C.3     1  UNL1        0.0956
      3 C          54.8533   94.7437   -3.0205 C.3     1  UNL1        0.0900
      4 N          54.1886   95.9689   -2.4664 N.3     1  UNL1       -0.2698
      5 C          54.9258   96.8513   -1.5031 C.3     1  UNL1        0.0915
      6 C          56.3276   96.5085   -1.0939 C.3     1  UNL1        0.1131
      7 N          56.9922   95.2832   -1.6481 N.3     1  UNL1       -0.1541
      8 S          58.3940   94.9404   -1.2389 S.O2    1  UNL1        0.0633
      9 O          58.9276   95.8694   -2.2888 O.2     1  UNL1       -0.1528
     10 O          57.8605   94.0115   -0.1890 O.2     1  UNL1       -0.1528
     11 C          59.7958   94.5976   -0.8298 C.ar    1  UNL1        0.1222
     12 C          60.7637   95.6894   -0.4815 C.ar    1  UNL1        0.0197
     13 C          62.1656   95.3465   -0.0724 C.ar    1  UNL1       -0.0004
     14 C          62.5995   93.9120   -0.0115 C.ar    1  UNL1        0.0099
     15 C          61.6316   92.8202   -0.3598 C.ar    1  UNL1       -0.0004
     16 C          60.2298   93.1630   -0.7689 C.ar    1  UNL1        0.0197
     17 C          64.0013   93.5692    0.3976 C.3     1  UNL1        0.1945
     18 C          65.4032   93.2264    0.8067 C.3     1  UNL1        0.0428
     19 O          63.4681   92.7243    1.5164 O.3     1  UNL1       -0.3751
     20 H          62.4985   92.7512    1.5082 H       1  UNL1        0.2110
     21 C          64.5344   94.4141   -0.7212 C.3     1  UNL1        0.4230
     22 F          65.0676   95.2590   -1.8402 F       1  UNL1       -0.1673
     23 F          64.0878   93.6982   -1.9614 F       1  UNL1       -0.1673
     24 F          65.1277   95.3628    0.2778 F       1  UNL1       -0.1673
     25 C          52.7868   96.3118   -2.8755 C.3     1  UNL1        0.0807
     26 C          52.4279   96.3898   -4.3299 C.3     1  UNL1        0.0832
     27 C          53.8492   96.7356   -4.6621 C.3     1  UNL1        0.0100
     28 C          53.4902   96.8136   -6.1164 C.3     1  UNL1        0.0010
     29 C          52.0689   96.4679   -5.7842 C.3     1  UNL1        0.0100
     30 C          51.0066   96.0441   -3.9977 C.2     1  UNL1        0.2198
     31 N          50.0634   95.6224   -5.0851 N.am    1  UNL1       -0.3288
     32 O          50.5284   96.1200   -2.5780 O.2     1  UNL1       -0.2753
     33 H          50.3773   95.5725   -6.0169 H       1  UNL1        0.1449
     34 H          49.1306   95.3954   -4.8671 H       1  UNL1        0.1449
@<TRIPOS>BOND
     1     2     1    1
     2     2     3    1
     3     3     4    1
     4     4    25    1
     5    25    26    1
     6    26    30    1
     7    30    31   am
     8    30    32    2
     9    26    27    1
    10    27    28    1
    11    28    29    1
    12     4     5    1
    13     5     6    1
    14     6     7    1
    15     7     8    1
    16     8     9    2
    17     8    10    2
    18     8    11    1
    19    11    12   ar
    20    12    13   ar
    21    13    14   ar
    22    14    17    1
    23    17    18    1
    24    17    19    1
    25    17    21    1
    26    21    22    1
    27    21    23    1
    28    21    24    1
    29    14    15   ar
    30    15    16   ar
    31     7     2    1
    32    16    11   ar
    33    29    26    1
    34    31    33    1
    35    31    34    1
    36    19    20    1
