@<TRIPOS>MOLECULE
*****
 60 67 0 0 0
SMALL
GASTEIGER

@<TRIPOS>ATOM
      1 N          65.3945   89.2231   14.5485 N.3     1  UNL1       -0.1862
      2 C          65.5903   87.9703   15.3497 C.3     1  UNL1        0.1775
      3 C          64.8217   86.7299   15.0022 C.2     1  UNL1        0.2452
      4 O          65.0176   85.4770   15.8035 O.2     1  UNL1       -0.2732
      5 N          63.8572   86.7425   13.8535 N.am    1  UNL1       -0.2541
      6 C          63.0885   85.5021   13.5060 C.3     1  UNL1        0.1577
      7 C          62.1241   85.5147   12.3573 C.2     1  UNL1        0.2445
      8 O          61.3554   84.2743   12.0098 O.2     1  UNL1       -0.2731
      9 N          61.9282   86.7676   11.5560 N.am    1  UNL1       -0.2705
     10 C          62.6968   88.0079   11.9035 C.3     1  UNL1        0.1359
     11 C          63.6614   87.9953   13.0523 C.3     1  UNL1        0.1908
     12 N          64.4300   89.2356   13.3998 N.am    1  UNL1       -0.1863
     13 C          64.2341   90.4885   12.5985 C.2     1  UNL1        0.3191
     14 O          63.2697   90.5011   11.4498 O.2     1  UNL1       -0.2512
     15 N          65.0028   91.7289   12.9460 N.am    1  UNL1       -0.2836
     16 H          65.6358   91.7206   13.7000 H       1  UNL1        0.1513
     17 C          66.1632   90.4634   14.8960 C.3     1  UNL1        0.1188
     18 C          66.3109   92.7395   16.1401 C.2     1  UNL1       -0.0034
     19 C          65.5112   91.5494   15.6995 C.2     1  UNL1       -0.0071
     20 C          63.2844   84.2493   14.3072 C.3     1  UNL1        0.0556
     21 C          63.1031   82.9086   13.6592 C.ar    1  UNL1       -0.0198
     22 C          63.9130   82.5443   12.4504 C.ar    1  UNL1       -0.0011
     23 C          63.7318   81.2036   11.8025 C.ar    1  UNL1        0.0363
     24 C          62.7407   80.2274   12.3633 C.ar    1  UNL1        0.1337
     25 O          62.5595   78.8867   11.7154 O.3     1  UNL1       -0.5055
     26 C          61.9308   80.5917   13.5722 C.ar    1  UNL1        0.0363
     27 C          62.1120   81.9324   14.2202 C.ar    1  UNL1       -0.0011
     28 H          63.0654   78.6591   10.9602 H       1  UNL1        0.2922
     29 C          60.9637   86.7801   10.4073 C.3     1  UNL1        0.1217
     30 C          60.4384   88.0837    9.8832 C.ar    1  UNL1        0.0135
     31 C          60.2388   89.2413   10.8161 C.ar    1  UNL1       -0.0012
     32 C          59.7135   90.5449   10.2921 C.ar    1  UNL1       -0.0002
     33 C          59.3878   90.6909    8.8352 C.ar    1  UNL1        0.0016
     34 C          59.5874   89.5334    7.9023 C.ar    1  UNL1        0.0214
     35 C          59.3558   89.3808    6.4282 C.ar    1  UNL1        0.0721
     36 C          59.7380   87.9829    6.0412 C.ar    1  UNL1        0.0805
     37 N          60.2057   87.2716    7.2761 N.ar    1  UNL1       -0.3241
     38 C          60.6828   85.8513    7.3481 C.3     1  UNL1        0.1305
     39 C          60.1127   88.2298    8.4263 C.ar    1  UNL1        0.0577
     40 C          58.8337   90.4402    5.5034 C.2     1  UNL1        0.2506
     41 O          57.3717   90.7757    5.4966 O.2     1  UNL1       -0.2699
     42 N          59.7736   91.1641    4.5855 N.am    1  UNL1       -0.2732
     43 C          61.2356   90.8286    4.5924 C.3     1  UNL1        0.1110
     44 C          62.1755   91.5525    3.6745 C.3     1  UNL1        0.0940
     45 N          61.6535   92.6119    2.7496 N.3     1  UNL1       -0.2681
     46 C          62.5933   93.3358    1.8317 C.3     1  UNL1        0.0940
     47 C          62.0712   94.3952    0.9070 C.3     1  UNL1        0.1112
     48 N          60.6092   94.7306    0.9002 N.am    1  UNL1       -0.2695
     49 C          60.0872   95.7900   -0.0246 C.2     1  UNL1        0.3030
     50 O          58.6252   96.1254   -0.0314 O.2     1  UNL1       -0.2649
     51 C          59.6693   94.0067    1.8181 C.3     1  UNL1        0.1115
     52 C          60.1915   92.9474    2.7428 C.3     1  UNL1        0.0975
     53 C          59.2516   92.2235    3.6607 C.3     1  UNL1        0.1114
     54 C          64.8070   92.9817   12.1449 C.3     1  UNL1        0.1177
     55 C          65.8550   93.4159   11.1635 C.ar    1  UNL1       -0.0025
     56 C          65.9401   94.8535   10.7441 C.ar    1  UNL1       -0.0026
     57 C          66.9882   95.2877    9.7627 C.ar    1  UNL1       -0.0003
     58 C          67.9510   94.2842    9.2007 C.ar    1  UNL1       -0.0000
     59 C          67.8659   92.8465    9.6201 C.ar    1  UNL1       -0.0003
     60 C          66.8179   92.4124   10.6015 C.ar    1  UNL1       -0.0026
@<TRIPOS>BOND
     1    18    19    2
     2    19    17    1
     3    17     1    1
     4     1     2    1
     5     2     3    1
     6     3     4    2
     7     3     5   am
     8     5     6    1
     9     6    20    1
    10    20    21    1
    11    21    22   ar
    12    22    23   ar
    13    23    24   ar
    14    24    25    1
    15    24    26   ar
    16    26    27   ar
    17     6     7    1
    18     7     8    2
    19     7     9   am
    20     9    29    1
    21    29    30    1
    22    30    31   ar
    23    31    32   ar
    24    32    33   ar
    25    33    34   ar
    26    34    35   ar
    27    35    40    1
    28    40    41    2
    29    40    42   am
    30    42    43    1
    31    43    44    1
    32    44    45    1
    33    45    46    1
    34    46    47    1
    35    47    48    1
    36    48    49   am
    37    49    50    2
    38    48    51    1
    39    51    52    1
    40    52    53    1
    41    35    36   ar
    42    36    37   ar
    43    37    38    1
    44    37    39   ar
    45     9    10    1
    46    11    10    1
    47    11    12    1
    48    12    13   am
    49    13    14    2
    50    13    15   am
    51    15    54    1
    52    54    55    1
    53    55    56   ar
    54    56    57   ar
    55    57    58   ar
    56    58    59   ar
    57    59    60   ar
    58    12     1    1
    59    60    55   ar
    60    11     5    1
    61    27    21   ar
    62    39    30   ar
    63    39    34   ar
    64    53    42    1
    65    52    45    1
    66    25    28    1
    67    15    16    1
