@<TRIPOS>MOLECULE
*****
 19 21 0 0 0
SMALL
GASTEIGER

@<TRIPOS>ATOM
      1 O          63.4755   82.7278   15.1765 O.3     1  UNL1       -0.5055
      2 C          63.5430   83.0198   13.7067 C.ar    1  UNL1        0.1337
      3 C          64.4521   82.2176   12.8237 C.ar    1  UNL1        0.0366
      4 C          64.5196   82.5096   11.3539 C.ar    1  UNL1        0.0032
      5 C          63.6779   83.6038   10.7672 C.ar    1  UNL1        0.0024
      6 C          63.7454   83.8958    9.2975 C.ar    1  UNL1        0.0001
      7 C          62.9037   84.9899    8.7108 C.ar    1  UNL1        0.0023
      8 C          61.9944   85.7922    9.5938 C.ar    1  UNL1        0.0290
      9 C          61.9269   85.5002   11.0636 C.ar    1  UNL1        0.1402
     10 F          61.0178   86.3024   11.9467 F       1  UNL1       -0.2042
     11 C          62.7687   84.4059   11.6503 C.ar    1  UNL1        0.0305
     12 C          62.7013   84.1140   13.1200 C.ar    1  UNL1        0.0388
     13 H          64.0013   82.0443   15.5430 H       1  UNL1        0.2922
     14 C          61.1527   86.8864    9.0071 C.ar    1  UNL1        0.0213
     15 C          60.0912   86.5577    7.9995 C.ar    1  UNL1        0.0032
     16 C          59.2495   87.6518    7.4128 C.ar    1  UNL1        0.0207
     17 C          59.4692   89.0747    7.8337 C.ar    1  UNL1        0.0989
     18 N          60.5306   89.4034    8.8413 N.ar    1  UNL1       -0.2423
     19 C          61.3724   88.3092    9.4280 C.ar    1  UNL1        0.0989
@<TRIPOS>BOND
     1     1     2    1
     2     2     3   ar
     3     3     4   ar
     4     4     5   ar
     5     5     6   ar
     6     6     7   ar
     7     7     8   ar
     8     8    14    1
     9    14    15   ar
    10    15    16   ar
    11    16    17   ar
    12    17    18   ar
    13    18    19   ar
    14     8     9   ar
    15     9    10    1
    16     9    11   ar
    17    11    12   ar
    18    12     2   ar
    19    11     5   ar
    20    19    14   ar
    21     1    13    1
@<TRIPOS>MOLECULE
*****
 19 21 0 0 0
SMALL
GASTEIGER

@<TRIPOS>ATOM
      1 O          58.5596   89.2981    6.3540 O.3     1  UNL1       -0.5055
      2 C          59.3377   88.5844    7.4194 C.ar    1  UNL1        0.1337
      3 C          59.2873   87.0880    7.5098 C.ar    1  UNL1        0.0366
      4 C          60.0654   86.3744    8.5753 C.ar    1  UNL1        0.0032
      5 C          60.8939   87.1571    9.5504 C.ar    1  UNL1        0.0024
      6 C          61.6720   86.4435   10.6159 C.ar    1  UNL1        0.0001
      7 C          62.5005   87.2262   11.5910 C.ar    1  UNL1        0.0023
      8 C          62.5509   88.7227   11.5007 C.ar    1  UNL1        0.0290
      9 C          61.7728   89.4364   10.4352 C.ar    1  UNL1        0.1402
     10 F          61.8232   90.9328   10.3448 F       1  UNL1       -0.2042
     11 C          60.9443   88.6535    9.4600 C.ar    1  UNL1        0.0305
     12 C          60.1662   89.3672    8.3945 C.ar    1  UNL1        0.0388
     13 H          58.0421   88.8091    5.7448 H       1  UNL1        0.2922
     14 C          63.3794   89.5055   12.4758 C.ar    1  UNL1        0.0213
     15 C          63.9438   88.8313   13.6911 C.ar    1  UNL1        0.0032
     16 C          64.7723   89.6141   14.6662 C.ar    1  UNL1        0.0207
     17 C          65.0364   91.0710   14.4261 C.ar    1  UNL1        0.0989
     18 N          64.4720   91.7451   13.2108 N.ar    1  UNL1       -0.2423
     19 C          63.6435   90.9624   12.2356 C.ar    1  UNL1        0.0989
@<TRIPOS>BOND
     1     1     2    1
     2     2     3   ar
     3     3     4   ar
     4     4     5   ar
     5     5     6   ar
     6     6     7   ar
     7     7     8   ar
     8     8    14    1
     9    14    15   ar
    10    15    16   ar
    11    16    17   ar
    12    17    18   ar
    13    18    19   ar
    14     8     9   ar
    15     9    10    1
    16     9    11   ar
    17    11    12   ar
    18    12     2   ar
    19    11     5   ar
    20    19    14   ar
    21     1    13    1
@<TRIPOS>MOLECULE
*****
 19 21 0 0 0
SMALL
GASTEIGER

@<TRIPOS>ATOM
      1 O          64.1701   91.7090   13.1610 O.3     1  UNL1       -0.5055
      2 C          63.5702   90.5503   12.4209 C.ar    1  UNL1        0.1337
      3 C          62.8376   90.7815   11.1326 C.ar    1  UNL1        0.0366
      4 C          62.2378   89.6229   10.3925 C.ar    1  UNL1        0.0032
      5 C          62.3706   88.2330   10.9407 C.ar    1  UNL1        0.0024
      6 C          61.7708   87.0743   10.2006 C.ar    1  UNL1        0.0001
      7 C          61.9036   85.6845   10.7489 C.ar    1  UNL1        0.0023
      8 C          62.6362   85.4532   12.0372 C.ar    1  UNL1        0.0290
      9 C          63.2360   86.6118   12.7773 C.ar    1  UNL1        0.1402
     10 F          63.9687   86.3806   14.0656 F       1  UNL1       -0.2042
     11 C          63.1032   88.0018   12.2290 C.ar    1  UNL1        0.0305
     12 C          63.7030   89.1604   12.9691 C.ar    1  UNL1        0.0388
     13 H          64.0871   92.5772   12.8186 H       1  UNL1        0.2922
     14 C          62.7690   84.0633   12.5854 C.ar    1  UNL1        0.0213
     15 C          63.0110   82.9106   11.6565 C.ar    1  UNL1        0.0032
     16 C          63.1437   81.5207   12.2047 C.ar    1  UNL1        0.0207
     17 C          63.0346   81.2835   13.6818 C.ar    1  UNL1        0.0989
     18 N          62.7927   82.4361   14.6107 N.ar    1  UNL1       -0.2423
     19 C          62.6599   83.8261   14.0625 C.ar    1  UNL1        0.0989
@<TRIPOS>BOND
     1     1     2    1
     2     2     3   ar
     3     3     4   ar
     4     4     5   ar
     5     5     6   ar
     6     6     7   ar
     7     7     8   ar
     8     8    14    1
     9    14    15   ar
    10    15    16   ar
    11    16    17   ar
    12    17    18   ar
    13    18    19   ar
    14     8     9   ar
    15     9    10    1
    16     9    11   ar
    17    11    12   ar
    18    12     2   ar
    19    11     5   ar
    20    19    14   ar
    21     1    13    1
@<TRIPOS>MOLECULE
*****
 19 21 0 0 0
SMALL
GASTEIGER

@<TRIPOS>ATOM
      1 O          61.7842   90.4651    9.7382 O.3     1  UNL1       -0.5055
      2 C          62.3766   89.6266   10.8318 C.ar    1  UNL1        0.1337
      3 C          63.1844   90.2725   11.9181 C.ar    1  UNL1        0.0366
      4 C          63.7768   89.4340   13.0118 C.ar    1  UNL1        0.0032
      5 C          63.5613   87.9496   13.0191 C.ar    1  UNL1        0.0024
      6 C          64.1536   87.1111   14.1127 C.ar    1  UNL1        0.0001
      7 C          63.9381   85.6267   14.1200 C.ar    1  UNL1        0.0023
      8 C          63.1302   84.9807   13.0337 C.ar    1  UNL1        0.0290
      9 C          62.5379   85.8192   11.9400 C.ar    1  UNL1        0.1402
     10 F          61.7300   85.1733   10.8537 F       1  UNL1       -0.2042
     11 C          62.7534   87.3037   11.9328 C.ar    1  UNL1        0.0305
     12 C          62.1611   88.1422   10.8391 C.ar    1  UNL1        0.0388
     13 H          61.9189   91.3923    9.7336 H       1  UNL1        0.2922
     14 C          62.9147   83.4963   13.0410 C.ar    1  UNL1        0.0213
     15 C          63.1356   82.7002   11.7890 C.ar    1  UNL1        0.0032
     16 C          62.9201   81.2158   11.7963 C.ar    1  UNL1        0.0207
     17 C          62.4837   80.5275   13.0555 C.ar    1  UNL1        0.0989
     18 N          62.2628   81.3235   14.3075 N.ar    1  UNL1       -0.2423
     19 C          62.4783   82.8080   14.3002 C.ar    1  UNL1        0.0989
@<TRIPOS>BOND
     1     1     2    1
     2     2     3   ar
     3     3     4   ar
     4     4     5   ar
     5     5     6   ar
     6     6     7   ar
     7     7     8   ar
     8     8    14    1
     9    14    15   ar
    10    15    16   ar
    11    16    17   ar
    12    17    18   ar
    13    18    19   ar
    14     8     9   ar
    15     9    10    1
    16     9    11   ar
    17    11    12   ar
    18    12     2   ar
    19    11     5   ar
    20    19    14   ar
    21     1    13    1
@<TRIPOS>MOLECULE
*****
 19 21 0 0 0
SMALL
GASTEIGER

@<TRIPOS>ATOM
      1 O          66.6839   92.7025   16.6221 O.3     1  UNL1       -0.5055
      2 C          66.2463   92.6591   15.1880 C.ar    1  UNL1        0.1337
      3 C          66.8386   93.6134   14.1939 C.ar    1  UNL1        0.0366
      4 C          66.4010   93.5699   12.7598 C.ar    1  UNL1        0.0032
      5 C          65.3710   92.5721   12.3199 C.ar    1  UNL1        0.0024
      6 C          64.9334   92.5286   10.8858 C.ar    1  UNL1        0.0001
      7 C          63.9034   91.5309   10.4459 C.ar    1  UNL1        0.0023
      8 C          63.3110   90.5765   11.4401 C.ar    1  UNL1        0.0290
      9 C          63.7487   90.6200   12.8741 C.ar    1  UNL1        0.1402
     10 F          63.1563   89.6657   13.8683 F       1  UNL1       -0.2042
     11 C          64.7787   91.6178   13.3140 C.ar    1  UNL1        0.0305
     12 C          65.2163   91.6613   14.7481 C.ar    1  UNL1        0.0388
     13 H          67.3273   93.3258   16.8969 H       1  UNL1        0.2922
     14 C          62.2810   89.5787   11.0002 C.ar    1  UNL1        0.0213
     15 C          62.5471   88.1102   11.1507 C.ar    1  UNL1        0.0032
     16 C          61.5171   87.1124   10.7108 C.ar    1  UNL1        0.0207
     17 C          60.2211   87.5831   10.1203 C.ar    1  UNL1        0.0989
     18 N          59.9550   89.0516    9.9697 N.ar    1  UNL1       -0.2423
     19 C          60.9850   90.0495   10.4096 C.ar    1  UNL1        0.0989
@<TRIPOS>BOND
     1     1     2    1
     2     2     3   ar
     3     3     4   ar
     4     4     5   ar
     5     5     6   ar
     6     6     7   ar
     7     7     8   ar
     8     8    14    1
     9    14    15   ar
    10    15    16   ar
    11    16    17   ar
    12    17    18   ar
    13    18    19   ar
    14     8     9   ar
    15     9    10    1
    16     9    11   ar
    17    11    12   ar
    18    12     2   ar
    19    11     5   ar
    20    19    14   ar
    21     1    13    1
@<TRIPOS>MOLECULE
*****
 19 21 0 0 0
SMALL
GASTEIGER

@<TRIPOS>ATOM
      1 O          60.9017   87.1258    8.6725 O.3     1  UNL1       -0.5055
      2 C          61.6387   86.9685    9.9694 C.ar    1  UNL1        0.1337
      3 C          61.8671   85.6006   10.5411 C.ar    1  UNL1        0.0366
      4 C          62.6041   85.4433   11.8381 C.ar    1  UNL1        0.0032
      5 C          63.1128   86.6537   12.5633 C.ar    1  UNL1        0.0024
      6 C          63.8498   86.4964   13.8602 C.ar    1  UNL1        0.0001
      7 C          64.3585   87.7068   14.5855 C.ar    1  UNL1        0.0023
      8 C          64.1302   89.0747   14.0138 C.ar    1  UNL1        0.0290
      9 C          63.3931   89.2321   12.7168 C.ar    1  UNL1        0.1402
     10 F          63.1648   90.5999   12.1451 F       1  UNL1       -0.2042
     11 C          62.8844   88.0215   11.9916 C.ar    1  UNL1        0.0305
     12 C          62.1474   88.1789   10.6947 C.ar    1  UNL1        0.0388
     13 H          60.5839   86.3697    8.2195 H       1  UNL1        0.2922
     14 C          64.6388   90.2852   14.7390 C.ar    1  UNL1        0.0213
     15 C          65.9449   90.9053   14.3392 C.ar    1  UNL1        0.0032
     16 C          66.4536   92.1157   15.0645 C.ar    1  UNL1        0.0207
     17 C          65.6563   92.7061   16.1895 C.ar    1  UNL1        0.0989
     18 N          64.3503   92.0861   16.5893 N.ar    1  UNL1       -0.2423
     19 C          63.8415   90.8756   15.8640 C.ar    1  UNL1        0.0989
@<TRIPOS>BOND
     1     1     2    1
     2     2     3   ar
     3     3     4   ar
     4     4     5   ar
     5     5     6   ar
     6     6     7   ar
     7     7     8   ar
     8     8    14    1
     9    14    15   ar
    10    15    16   ar
    11    16    17   ar
    12    17    18   ar
    13    18    19   ar
    14     8     9   ar
    15     9    10    1
    16     9    11   ar
    17    11    12   ar
    18    12     2   ar
    19    11     5   ar
    20    19    14   ar
    21     1    13    1
@<TRIPOS>MOLECULE
*****
 19 21 0 0 0
SMALL
GASTEIGER

@<TRIPOS>ATOM
      1 O          61.2025   86.3423   11.3131 O.3     1  UNL1       -0.5055
      2 C          61.8518   87.6881   11.1820 C.ar    1  UNL1        0.1337
      3 C          61.5552   88.5512    9.9916 C.ar    1  UNL1        0.0366
      4 C          62.2045   89.8970    9.8605 C.ar    1  UNL1        0.0032
      5 C          63.1505   90.3797   10.9198 C.ar    1  UNL1        0.0024
      6 C          63.7998   91.7255   10.7887 C.ar    1  UNL1        0.0001
      7 C          64.7458   92.2082   11.8479 C.ar    1  UNL1        0.0023
      8 C          65.0425   91.3451   13.0384 C.ar    1  UNL1        0.0290
      9 C          64.3931   89.9993   13.1695 C.ar    1  UNL1        0.1402
     10 F          64.6898   89.1362   14.3599 F       1  UNL1       -0.2042
     11 C          63.4471   89.5166   12.1102 C.ar    1  UNL1        0.0305
     12 C          62.7978   88.1708   12.2413 C.ar    1  UNL1        0.0388
     13 H          60.6115   86.0408   10.6514 H       1  UNL1        0.2922
     14 C          65.9885   91.8278   14.0977 C.ar    1  UNL1        0.0213
     15 C          67.4571   91.9197   13.8063 C.ar    1  UNL1        0.0032
     16 C          68.4030   92.4024   14.8656 C.ar    1  UNL1        0.0207
     17 C          67.8805   92.7933   16.2162 C.ar    1  UNL1        0.0989
     18 N          66.4120   92.7014   16.5076 N.ar    1  UNL1       -0.2423
     19 C          65.4659   92.2187   15.4483 C.ar    1  UNL1        0.0989
@<TRIPOS>BOND
     1     1     2    1
     2     2     3   ar
     3     3     4   ar
     4     4     5   ar
     5     5     6   ar
     6     6     7   ar
     7     7     8   ar
     8     8    14    1
     9    14    15   ar
    10    15    16   ar
    11    16    17   ar
    12    17    18   ar
    13    18    19   ar
    14     8     9   ar
    15     9    10    1
    16     9    11   ar
    17    11    12   ar
    18    12     2   ar
    19    11     5   ar
    20    19    14   ar
    21     1    13    1
@<TRIPOS>MOLECULE
*****
 19 21 0 0 0
SMALL
GASTEIGER

@<TRIPOS>ATOM
      1 O          64.4831   83.0757   15.2989 O.3     1  UNL1       -0.5055
      2 C          64.2317   84.4216   14.6861 C.ar    1  UNL1        0.1337
      3 C          64.8379   85.6495   15.2983 C.ar    1  UNL1        0.0366
      4 C          64.5865   86.9953   14.6854 C.ar    1  UNL1        0.0032
      5 C          63.7290   87.1132   13.4604 C.ar    1  UNL1        0.0024
      6 C          63.4777   88.4591   12.8476 C.ar    1  UNL1        0.0001
      7 C          62.6202   88.5770   11.6226 C.ar    1  UNL1        0.0023
      8 C          62.0140   87.3491   11.0103 C.ar    1  UNL1        0.0290
      9 C          62.2653   86.0032   11.6231 C.ar    1  UNL1        0.1402
     10 F          61.6592   84.7753   11.0109 F       1  UNL1       -0.2042
     11 C          63.1229   85.8853   12.8482 C.ar    1  UNL1        0.0305
     12 C          63.3742   84.5395   13.4611 C.ar    1  UNL1        0.0388
     13 H          65.0188   83.0021   16.0642 H       1  UNL1        0.2922
     14 C          61.1565   87.4670    9.7853 C.ar    1  UNL1        0.0213
     15 C          60.8079   86.2419    8.9930 C.ar    1  UNL1        0.0032
     16 C          59.9504   86.3598    7.7679 C.ar    1  UNL1        0.0207
     17 C          59.4414   87.7028    7.3351 C.ar    1  UNL1        0.0989
     18 N          59.7900   88.9279    8.1274 N.ar    1  UNL1       -0.2423
     19 C          60.6475   88.8100    9.3525 C.ar    1  UNL1        0.0989
@<TRIPOS>BOND
     1     1     2    1
     2     2     3   ar
     3     3     4   ar
     4     4     5   ar
     5     5     6   ar
     6     6     7   ar
     7     7     8   ar
     8     8    14    1
     9    14    15   ar
    10    15    16   ar
    11    16    17   ar
    12    17    18   ar
    13    18    19   ar
    14     8     9   ar
    15     9    10    1
    16     9    11   ar
    17    11    12   ar
    18    12     2   ar
    19    11     5   ar
    20    19    14   ar
    21     1    13    1
@<TRIPOS>MOLECULE
*****
 19 21 0 0 0
SMALL
GASTEIGER

@<TRIPOS>ATOM
      1 O          62.6571   83.3948   11.7723 O.3     1  UNL1       -0.5055
      2 C          62.6241   84.8799   11.5635 C.ar    1  UNL1        0.1337
      3 C          62.0052   85.4490   10.3214 C.ar    1  UNL1        0.0366
      4 C          61.9721   86.9340   10.1126 C.ar    1  UNL1        0.0032
      5 C          62.5580   87.8499   11.1459 C.ar    1  UNL1        0.0024
      6 C          62.5250   89.3349   10.9372 C.ar    1  UNL1        0.0001
      7 C          63.1108   90.2508   11.9705 C.ar    1  UNL1        0.0023
      8 C          63.7298   89.6817   13.2128 C.ar    1  UNL1        0.0290
      9 C          63.7628   88.1967   13.4215 C.ar    1  UNL1        0.1402
     10 F          64.3817   87.6275   14.6637 F       1  UNL1       -0.2042
     11 C          63.1769   87.2808   12.3881 C.ar    1  UNL1        0.0305
     12 C          63.2099   85.7957   12.5969 C.ar    1  UNL1        0.0388
     13 H          62.2911   82.8227   11.1268 H       1  UNL1        0.2922
     14 C          64.3156   90.5976   14.2461 C.ar    1  UNL1        0.0213
     15 C          65.7089   91.1267   14.0759 C.ar    1  UNL1        0.0032
     16 C          66.2947   92.0426   15.1093 C.ar    1  UNL1        0.0207
     17 C          65.4874   92.4294   16.3129 C.ar    1  UNL1        0.0989
     18 N          64.0942   91.9003   16.4831 N.ar    1  UNL1       -0.2423
     19 C          63.5083   90.9843   15.4497 C.ar    1  UNL1        0.0989
@<TRIPOS>BOND
     1     1     2    1
     2     2     3   ar
     3     3     4   ar
     4     4     5   ar
     5     5     6   ar
     6     6     7   ar
     7     7     8   ar
     8     8    14    1
     9    14    15   ar
    10    15    16   ar
    11    16    17   ar
    12    17    18   ar
    13    18    19   ar
    14     8     9   ar
    15     9    10    1
    16     9    11   ar
    17    11    12   ar
    18    12     2   ar
    19    11     5   ar
    20    19    14   ar
    21     1    13    1
