@<TRIPOS>MOLECULE
*****
 34 38 0 0 0
SMALL
GASTEIGER

@<TRIPOS>ATOM
      1 C          63.2452   90.9699   11.3602 C.2     1  UNL1        0.2508
      2 O          62.9360   91.3916    9.9543 O.2     1  UNL1       -0.2727
      3 N          64.4132   91.5716   12.0839 N.am    1  UNL1       -0.2730
      4 C          65.3563   92.6002   11.5340 C.3     1  UNL1        0.0759
      5 C          66.4366   93.6056   11.2652 C.3     1  UNL1        0.0215
      6 C          66.3691   92.9146   12.5948 C.3     1  UNL1        0.0220
      7 C          66.0518   92.0804   13.8004 C.3     1  UNL1        0.0309
      8 C          64.8430   91.2503   13.4846 C.3     1  UNL1        0.1521
      9 C          64.1804   90.2709   14.4075 C.2     1  UNL1        0.2452
     10 O          63.0778   90.7256   15.3174 O.2     1  UNL1       -0.2730
     11 N          64.6202   88.8370   14.4206 N.am    1  UNL1       -0.2680
     12 H          65.3438   88.5386   13.8235 H       1  UNL1        0.1563
     13 C          63.9576   87.8576   15.3435 C.ar    1  UNL1        0.1347
     14 C          63.3296   88.3358   16.6191 C.ar    1  UNL1        0.0345
     15 C          62.6669   87.3565   17.5420 C.ar    1  UNL1        0.0049
     16 C          62.6323   85.8989   17.1893 C.ar    1  UNL1        0.0261
     17 C          63.2603   85.4207   15.9138 C.ar    1  UNL1        0.1168
     18 BR         63.2256   83.9631   15.5612 Br      1  UNL1       -0.0280
     19 N          63.9229   86.4001   14.9909 N.ar    1  UNL1       -0.2238
     20 C          62.3864   89.9465   12.0423 C.3     1  UNL1        0.2120
     21 C          62.3460   86.2172   10.9674 C.ar    1  UNL1        0.1552
     22 N          62.8180   87.3138   11.8754 N.ar    1  UNL1       -0.1642
     23 N          62.1892   88.5967   11.4184 N.ar    1  UNL1       -0.2414
     24 C          61.3286   88.2930   10.2280 C.ar    1  UNL1        0.0800
     25 C          60.4694   89.1655    9.3618 C.ar    1  UNL1        0.0188
     26 C          59.7069   88.5674    8.2169 C.ar    1  UNL1        0.0015
     27 C          59.8038   87.0967    7.9381 C.ar    1  UNL1        0.0001
     28 C          60.6631   86.2242    8.8043 C.ar    1  UNL1        0.0032
     29 C          61.4255   86.8223    9.9492 C.ar    1  UNL1        0.0411
     30 N          63.4583   84.1117    9.9282 N.am    1  UNL1       -0.3240
     31 C          62.7274   84.7695   11.0610 C.2     1  UNL1        0.2623
     32 O          62.3781   83.9796   12.2873 O.2     1  UNL1       -0.2687
     33 H          63.7087   83.1615    9.9896 H       1  UNL1        0.1453
     34 H          63.6876   84.6301    9.1232 H       1  UNL1        0.1453
@<TRIPOS>BOND
     1    30    31   am
     2    31    32    2
     3    31    21    1
     4    21    22   ar
     5    22    23   ar
     6    23    20    1
     7    20     1    1
     8     1     2    2
     9     1     3   am
    10     3     4    1
    11     4     5    1
    12     6     5    1
    13     6     7    1
    14     7     8    1
    15     8     9    1
    16     9    10    2
    17     9    11   am
    18    11    13    1
    19    13    14   ar
    20    14    15   ar
    21    15    16   ar
    22    16    17   ar
    23    17    18    1
    24    17    19   ar
    25    23    24   ar
    26    24    25   ar
    27    25    26   ar
    28    26    27   ar
    29    27    28   ar
    30    28    29   ar
    31    29    21   ar
    32     8     3    1
    33    19    13   ar
    34    29    24   ar
    35     6     4    1
    36    30    33    1
    37    30    34    1
    38    11    12    1
@<TRIPOS>MOLECULE
*****
 34 38 0 0 0
SMALL
GASTEIGER

@<TRIPOS>ATOM
      1 C          63.4021   91.0996   11.6648 C.2     1  UNL1        0.2508
      2 O          63.2588   91.7554   10.3234 O.2     1  UNL1       -0.2727
      3 N          64.4505   91.5776   12.6252 N.am    1  UNL1       -0.2730
      4 C          65.4227   92.6944   12.3851 C.3     1  UNL1        0.0759
      5 C          66.4962   93.7409   12.4333 C.3     1  UNL1        0.0215
      6 C          66.2839   92.8297   13.6057 C.3     1  UNL1        0.0220
      7 C          65.8440   91.7965   14.6002 C.3     1  UNL1        0.0309
      8 C          64.7109   91.0226   13.9942 C.3     1  UNL1        0.1521
      9 C          63.9685   89.8923   14.6432 C.2     1  UNL1        0.2452
     10 O          62.5650   90.0987   15.1308 O.2     1  UNL1       -0.2730
     11 N          64.6296   88.5556   14.8047 N.am    1  UNL1       -0.2680
     12 H          65.5507   88.4201   14.4847 H       1  UNL1        0.1563
     13 C          63.8873   87.4252   15.4537 C.ar    1  UNL1        0.1347
     14 C          63.2415   87.6231   16.7931 C.ar    1  UNL1        0.0345
     15 C          62.4991   86.4928   17.4422 C.ar    1  UNL1        0.0049
     16 C          62.4025   85.1645   16.7518 C.ar    1  UNL1        0.0261
     17 C          63.0483   84.9667   15.4125 C.ar    1  UNL1        0.1168
     18 BR         62.9517   83.6385   14.7221 Br      1  UNL1       -0.0280
     19 N          63.7906   86.0970   14.7634 N.ar    1  UNL1       -0.2238
     20 C          62.4968   89.9658   12.0458 C.3     1  UNL1        0.2120
     21 C          60.5057   88.4852    9.0612 C.ar    1  UNL1        0.1552
     22 N          60.9304   89.6519    9.9027 N.ar    1  UNL1       -0.1642
     23 N          61.8400   89.1397   10.9799 N.ar    1  UNL1       -0.2414
     24 C          61.9774   87.6564   10.8041 C.ar    1  UNL1        0.0800
     25 C          62.7469   86.6219   11.5707 C.ar    1  UNL1        0.0188
     26 C          62.6917   85.1828   11.1513 C.ar    1  UNL1        0.0015
     27 C          61.8670   84.7782    9.9654 C.ar    1  UNL1        0.0001
     28 C          61.0976   85.8128    9.1989 C.ar    1  UNL1        0.0032
     29 C          61.1528   87.2519    9.6182 C.ar    1  UNL1        0.0411
     30 N          59.6848   89.6903    6.9108 N.am    1  UNL1       -0.3240
     31 C          59.5940   88.5417    7.8714 C.2     1  UNL1        0.2623
     32 O          58.5916   87.4498    7.6421 O.2     1  UNL1       -0.2687
     33 H          59.0864   89.7275    6.1299 H       1  UNL1        0.1453
     34 H          60.3428   90.4070    7.0613 H       1  UNL1        0.1453
@<TRIPOS>BOND
     1    30    31   am
     2    31    32    2
     3    31    21    1
     4    21    22   ar
     5    22    23   ar
     6    23    20    1
     7    20     1    1
     8     1     2    2
     9     1     3   am
    10     3     4    1
    11     4     5    1
    12     6     5    1
    13     6     7    1
    14     7     8    1
    15     8     9    1
    16     9    10    2
    17     9    11   am
    18    11    13    1
    19    13    14   ar
    20    14    15   ar
    21    15    16   ar
    22    16    17   ar
    23    17    18    1
    24    17    19   ar
    25    23    24   ar
    26    24    25   ar
    27    25    26   ar
    28    26    27   ar
    29    27    28   ar
    30    28    29   ar
    31    29    21   ar
    32     8     3    1
    33    19    13   ar
    34    29    24   ar
    35     6     4    1
    36    30    33    1
    37    30    34    1
    38    11    12    1
@<TRIPOS>MOLECULE
*****
 34 38 0 0 0
SMALL
GASTEIGER

@<TRIPOS>ATOM
      1 C          61.3925   89.2774   10.1108 C.2     1  UNL1        0.2508
      2 O          61.0788   90.7433   10.1622 O.2     1  UNL1       -0.2727
      3 N          60.7189   88.4013    9.0965 N.am    1  UNL1       -0.2730
      4 C          59.7153   88.8467    8.0745 C.3     1  UNL1        0.0759
      5 C          58.7121   88.9898    6.9686 C.3     1  UNL1        0.0215
      6 C          59.3068   87.6467    7.2725 C.3     1  UNL1        0.0220
      7 C          60.0580   86.4598    7.7989 C.3     1  UNL1        0.0309
      8 C          60.9307   86.9262    8.9262 C.3     1  UNL1        0.1521
      9 C          61.8532   86.0681    9.7401 C.2     1  UNL1        0.2452
     10 O          63.0737   85.4685    9.1069 O.2     1  UNL1       -0.2730
     11 N          61.5553   85.8095   11.1873 N.am    1  UNL1       -0.2680
     12 H          60.7543   86.2031   11.6029 H       1  UNL1        0.1563
     13 C          62.4779   84.9514   12.0013 C.ar    1  UNL1        0.1347
     14 C          62.6072   83.4887   11.6948 C.ar    1  UNL1        0.0345
     15 C          63.5297   82.6306   12.5088 C.ar    1  UNL1        0.0049
     16 C          64.3229   83.2352   13.6293 C.ar    1  UNL1        0.0261
     17 C          64.1936   84.6978   13.9357 C.ar    1  UNL1        0.1168
     18 BR         64.9868   85.3024   15.0562 Br      1  UNL1       -0.0280
     19 N          63.2711   85.5559   13.1217 N.ar    1  UNL1       -0.2238
     20 C          62.3799   88.6875   11.0738 C.3     1  UNL1        0.2120
     21 C          63.4936   90.4168   14.3654 C.ar    1  UNL1        0.1552
     22 N          62.7270   89.3510   13.6398 N.ar    1  UNL1       -0.1642
     23 N          62.9572   89.5345   12.1690 N.ar    1  UNL1       -0.2414
     24 C          63.8660   90.7136   11.9855 C.ar    1  UNL1        0.0800
     25 C          64.4345   91.3613   10.7578 C.ar    1  UNL1        0.0188
     26 C          65.3345   92.5542   10.8875 C.ar    1  UNL1        0.0015
     27 C          65.6661   93.0994   12.2450 C.ar    1  UNL1        0.0001
     28 C          65.0976   92.4518   13.4727 C.ar    1  UNL1        0.0032
     29 C          64.1976   91.2589   13.3430 C.ar    1  UNL1        0.0411
     30 N          63.3448   89.4347   16.7662 N.am    1  UNL1       -0.3240
     31 C          63.5470   90.6070   15.8523 C.2     1  UNL1        0.2623
     32 O          63.8025   91.9693   16.4255 O.2     1  UNL1       -0.2687
     33 H          63.3798   89.5596   17.7421 H       1  UNL1        0.1453
     34 H          63.1771   88.5405   16.3900 H       1  UNL1        0.1453
@<TRIPOS>BOND
     1    30    31   am
     2    31    32    2
     3    31    21    1
     4    21    22   ar
     5    22    23   ar
     6    23    20    1
     7    20     1    1
     8     1     2    2
     9     1     3   am
    10     3     4    1
    11     4     5    1
    12     6     5    1
    13     6     7    1
    14     7     8    1
    15     8     9    1
    16     9    10    2
    17     9    11   am
    18    11    13    1
    19    13    14   ar
    20    14    15   ar
    21    15    16   ar
    22    16    17   ar
    23    17    18    1
    24    17    19   ar
    25    23    24   ar
    26    24    25   ar
    27    25    26   ar
    28    26    27   ar
    29    27    28   ar
    30    28    29   ar
    31    29    21   ar
    32     8     3    1
    33    19    13   ar
    34    29    24   ar
    35     6     4    1
    36    30    33    1
    37    30    34    1
    38    11    12    1
@<TRIPOS>MOLECULE
*****
 34 38 0 0 0
SMALL
GASTEIGER

@<TRIPOS>ATOM
      1 C          63.0209   83.7593   11.3715 C.2     1  UNL1        0.2508
      2 O          63.3033   83.4262    9.9365 O.2     1  UNL1       -0.2727
      3 N          62.8245   82.6592   12.3721 N.am    1  UNL1       -0.2730
      4 C          62.8810   81.1876   12.0870 C.3     1  UNL1        0.0759
      5 C          62.8773   79.6878   12.1083 C.3     1  UNL1        0.0215
      6 C          62.6285   80.4564   13.3721 C.3     1  UNL1        0.0220
      7 C          62.4159   81.4761   14.4515 C.3     1  UNL1        0.0309
      8 C          62.5370   82.8375   13.8335 C.3     1  UNL1        0.1521
      9 C          62.3955   84.1472   14.5508 C.2     1  UNL1        0.2452
     10 O          61.0344   84.7371   14.7735 O.2     1  UNL1       -0.2730
     11 N          63.6150   84.8670   15.0454 N.am    1  UNL1       -0.2680
     12 H          64.5083   84.4798   14.8993 H       1  UNL1        0.1563
     13 C          63.4735   86.1768   15.7628 C.ar    1  UNL1        0.1347
     14 C          62.9455   86.2099   17.1665 C.ar    1  UNL1        0.0345
     15 C          62.8040   87.5196   17.8838 C.ar    1  UNL1        0.0049
     16 C          63.1905   88.7962   17.1975 C.ar    1  UNL1        0.0261
     17 C          63.7184   88.7631   15.7939 C.ar    1  UNL1        0.1168
     18 BR         64.1049   90.0397   15.1076 Br      1  UNL1       -0.0280
     19 N          63.8599   87.4533   15.0766 N.ar    1  UNL1       -0.2238
     20 C          62.9350   85.1925   11.8060 C.3     1  UNL1        0.2120
     21 C          60.7188   87.1643    9.3029 C.ar    1  UNL1        0.1552
     22 N          61.2028   85.8699    9.8863 N.ar    1  UNL1       -0.1642
     23 N          62.1994   86.1896   10.9607 N.ar    1  UNL1       -0.2414
     24 C          62.3314   87.6816   11.0414 C.ar    1  UNL1        0.0800
     25 C          63.1666   88.5695   11.9154 C.ar    1  UNL1        0.0188
     26 C          63.0867   90.0598   11.7649 C.ar    1  UNL1        0.0015
     27 C          62.1716   90.6622   10.7404 C.ar    1  UNL1        0.0001
     28 C          61.3364   89.7743    9.8663 C.ar    1  UNL1        0.0032
     29 C          61.4163   88.2840   10.0168 C.ar    1  UNL1        0.0411
     30 N          59.1720   86.0960    7.5094 N.am    1  UNL1       -0.3240
     31 C          59.7137   87.3129    8.1994 C.2     1  UNL1        0.2623
     32 O          59.2502   88.6781    7.7859 O.2     1  UNL1       -0.2687
     33 H          58.5123   86.1935    6.7852 H       1  UNL1        0.1453
     34 H          59.4762   85.1999    7.7808 H       1  UNL1        0.1453
@<TRIPOS>BOND
     1    30    31   am
     2    31    32    2
     3    31    21    1
     4    21    22   ar
     5    22    23   ar
     6    23    20    1
     7    20     1    1
     8     1     2    2
     9     1     3   am
    10     3     4    1
    11     4     5    1
    12     6     5    1
    13     6     7    1
    14     7     8    1
    15     8     9    1
    16     9    10    2
    17     9    11   am
    18    11    13    1
    19    13    14   ar
    20    14    15   ar
    21    15    16   ar
    22    16    17   ar
    23    17    18    1
    24    17    19   ar
    25    23    24   ar
    26    24    25   ar
    27    25    26   ar
    28    26    27   ar
    29    27    28   ar
    30    28    29   ar
    31    29    21   ar
    32     8     3    1
    33    19    13   ar
    34    29    24   ar
    35     6     4    1
    36    30    33    1
    37    30    34    1
    38    11    12    1
@<TRIPOS>MOLECULE
*****
 34 38 0 0 0
SMALL
GASTEIGER

@<TRIPOS>ATOM
      1 C          63.4029   83.6650   11.3007 C.2     1  UNL1        0.2508
      2 O          63.8188   83.2649    9.9162 O.2     1  UNL1       -0.2727
      3 N          62.9783   82.6186   12.2881 N.am    1  UNL1       -0.2730
      4 C          62.9190   81.1411   12.0362 C.3     1  UNL1        0.0759
      5 C          62.7608   79.6502   12.0816 C.3     1  UNL1        0.0215
      6 C          62.4425   80.4754   13.2931 C.3     1  UNL1        0.0220
      7 C          62.2074   81.5415   14.3217 C.3     1  UNL1        0.0309
      8 C          62.5385   82.8661   13.7006 C.3     1  UNL1        0.1521
      9 C          62.4461   84.2033   14.3739 C.2     1  UNL1        0.2452
     10 O          61.1033   84.7939   14.6876 O.2     1  UNL1       -0.2730
     11 N          63.6963   84.9501   14.7334 N.am    1  UNL1       -0.2680
     12 H          64.5776   84.5625   14.5275 H       1  UNL1        0.1563
     13 C          63.6039   86.2873   15.4066 C.ar    1  UNL1        0.1347
     14 C          63.1058   86.3835   16.8183 C.ar    1  UNL1        0.0345
     15 C          63.0133   87.7207   17.4915 C.ar    1  UNL1        0.0049
     16 C          63.4190   88.9618   16.7530 C.ar    1  UNL1        0.0261
     17 C          63.9171   88.8656   15.3415 C.ar    1  UNL1        0.1168
     18 BR         64.3228   90.1067   14.6030 Br      1  UNL1       -0.0280
     19 N          64.0095   87.5283   14.6682 N.ar    1  UNL1       -0.2238
     20 C          63.4115   85.1115   11.6979 C.3     1  UNL1        0.2120
     21 C          60.6315   87.7687   11.1729 C.ar    1  UNL1        0.1552
     22 N          61.6674   87.1090   12.0341 N.ar    1  UNL1       -0.1642
     23 N          62.3187   86.0250   11.2275 N.ar    1  UNL1       -0.2414
     24 C          61.6854   86.0148    9.8677 C.ar    1  UNL1        0.0800
     25 C          61.9235   85.1634    8.6560 C.ar    1  UNL1        0.0188
     26 C          61.1188   85.3897    7.4105 C.ar    1  UNL1        0.0015
     27 C          60.0761   86.4675    7.3768 C.ar    1  UNL1        0.0001
     28 C          59.8380   87.3188    8.5886 C.ar    1  UNL1        0.0032
     29 C          60.6426   87.0925    9.8340 C.ar    1  UNL1        0.0411
     30 N          59.7780   90.1968   10.8171 N.am    1  UNL1       -0.3240
     31 C          59.7409   88.9052   11.5792 C.2     1  UNL1        0.2623
     32 O          58.8131   88.7504   12.7475 O.2     1  UNL1       -0.2687
     33 H          59.1935   90.9427   11.0838 H       1  UNL1        0.1453
     34 H          60.3870   90.2985   10.0502 H       1  UNL1        0.1453
@<TRIPOS>BOND
     1    30    31   am
     2    31    32    2
     3    31    21    1
     4    21    22   ar
     5    22    23   ar
     6    23    20    1
     7    20     1    1
     8     1     2    2
     9     1     3   am
    10     3     4    1
    11     4     5    1
    12     6     5    1
    13     6     7    1
    14     7     8    1
    15     8     9    1
    16     9    10    2
    17     9    11   am
    18    11    13    1
    19    13    14   ar
    20    14    15   ar
    21    15    16   ar
    22    16    17   ar
    23    17    18    1
    24    17    19   ar
    25    23    24   ar
    26    24    25   ar
    27    25    26   ar
    28    26    27   ar
    29    27    28   ar
    30    28    29   ar
    31    29    21   ar
    32     8     3    1
    33    19    13   ar
    34    29    24   ar
    35     6     4    1
    36    30    33    1
    37    30    34    1
    38    11    12    1
@<TRIPOS>MOLECULE
*****
 34 38 0 0 0
SMALL
GASTEIGER

@<TRIPOS>ATOM
      1 C          61.0178   89.4322   10.0566 C.2     1  UNL1        0.2508
      2 O          60.5292   90.8498   10.0147 O.2     1  UNL1       -0.2727
      3 N          60.4770   88.4235    9.0870 N.am    1  UNL1       -0.2730
      4 C          59.4500   88.6838    8.0251 C.3     1  UNL1        0.0759
      5 C          58.4616   88.6398    6.8977 C.3     1  UNL1        0.0215
      6 C          59.2064   87.3987    7.2909 C.3     1  UNL1        0.0220
      7 C          60.0829   86.3442    7.8990 C.3     1  UNL1        0.0309
      8 C          60.8682   86.9775    9.0090 C.3     1  UNL1        0.1521
      9 C          61.8689   86.2863    9.8870 C.2     1  UNL1        0.2452
     10 O          63.2097   85.9003    9.3362 O.2     1  UNL1       -0.2730
     11 N          61.5289   85.9811   11.3157 N.am    1  UNL1       -0.2680
     12 H          60.6489   86.2345   11.6772 H       1  UNL1        0.1563
     13 C          62.5296   85.2899   12.1936 C.ar    1  UNL1        0.1347
     14 C          62.8288   83.8344   11.9880 C.ar    1  UNL1        0.0345
     15 C          63.8295   83.1432   12.8660 C.ar    1  UNL1        0.0049
     16 C          64.5310   83.9074   13.9495 C.ar    1  UNL1        0.0261
     17 C          64.2318   85.3628   14.1550 C.ar    1  UNL1        0.1168
     18 BR         64.9333   86.1270   15.2385 Br      1  UNL1       -0.0280
     19 N          63.2311   86.0540   13.2771 N.ar    1  UNL1       -0.2238
     20 C          62.0474   89.0233   11.0680 C.3     1  UNL1        0.2120
     21 C          64.7485   91.7668   11.5601 C.ar    1  UNL1        0.1552
     22 N          63.8412   90.9654   10.6743 N.ar    1  UNL1       -0.1642
     23 N          63.0698   90.0141   11.5402 N.ar    1  UNL1       -0.2414
     24 C          63.5003   90.2274   12.9612 C.ar    1  UNL1        0.0800
     25 C          63.0817   89.5752   14.2454 C.ar    1  UNL1        0.0188
     26 C          63.7005   90.0063   15.5420 C.ar    1  UNL1        0.0015
     27 C          64.7380   91.0895   15.5543 C.ar    1  UNL1        0.0001
     28 C          65.1567   91.7417   14.2700 C.ar    1  UNL1        0.0032
     29 C          64.5379   91.3106   12.9735 C.ar    1  UNL1        0.0411
     30 N          65.2140   93.9514   10.2331 N.am    1  UNL1       -0.3240
     31 C          65.6995   92.8364   11.1114 C.2     1  UNL1        0.2623
     32 O          67.1360   92.7913   11.5409 O.2     1  UNL1       -0.2687
     33 H          65.8382   94.6535    9.9386 H       1  UNL1        0.1453
     34 H          64.2712   93.9811    9.9512 H       1  UNL1        0.1453
@<TRIPOS>BOND
     1    30    31   am
     2    31    32    2
     3    31    21    1
     4    21    22   ar
     5    22    23   ar
     6    23    20    1
     7    20     1    1
     8     1     2    2
     9     1     3   am
    10     3     4    1
    11     4     5    1
    12     6     5    1
    13     6     7    1
    14     7     8    1
    15     8     9    1
    16     9    10    2
    17     9    11   am
    18    11    13    1
    19    13    14   ar
    20    14    15   ar
    21    15    16   ar
    22    16    17   ar
    23    17    18    1
    24    17    19   ar
    25    23    24   ar
    26    24    25   ar
    27    25    26   ar
    28    26    27   ar
    29    27    28   ar
    30    28    29   ar
    31    29    21   ar
    32     8     3    1
    33    19    13   ar
    34    29    24   ar
    35     6     4    1
    36    30    33    1
    37    30    34    1
    38    11    12    1
@<TRIPOS>MOLECULE
*****
 34 38 0 0 0
SMALL
GASTEIGER

@<TRIPOS>ATOM
      1 C          63.7301   87.3786   13.6907 C.2     1  UNL1        0.2508
      2 O          64.5963   86.6553   14.6789 O.2     1  UNL1       -0.2727
      3 N          63.8805   88.8593   13.5043 N.am    1  UNL1       -0.2730
      4 C          64.8483   89.7456   14.2308 C.3     1  UNL1        0.0759
      5 C          65.6874   90.8592   14.7837 C.3     1  UNL1        0.0215
      6 C          64.6554   91.1478   13.7342 C.3     1  UNL1        0.0220
      7 C          63.5684   91.1281   12.7008 C.3     1  UNL1        0.0309
      8 C          63.0894   89.7138   12.5587 C.3     1  UNL1        0.1521
      9 C          62.0091   89.2375   11.6334 C.2     1  UNL1        0.2452
     10 O          60.5754   89.2732   12.0731 O.2     1  UNL1       -0.2730
     11 N          62.3624   88.7254   10.2686 N.am    1  UNL1       -0.2680
     12 H          63.3034   88.7020    9.9800 H       1  UNL1        0.1563
     13 C          61.2821   88.2491    9.3433 C.ar    1  UNL1        0.1347
     14 C          60.8601   86.8098    9.3612 C.ar    1  UNL1        0.0345
     15 C          59.7797   86.3335    8.4360 C.ar    1  UNL1        0.0049
     16 C          59.1215   87.2965    7.4929 C.ar    1  UNL1        0.0261
     17 C          59.5436   88.7358    7.4750 C.ar    1  UNL1        0.1168
     18 BR         58.8854   89.6988    6.5319 Br      1  UNL1       -0.0280
     19 N          60.6239   89.2121    8.4003 N.ar    1  UNL1       -0.2238
     20 C          62.7134   86.6211   12.8889 C.3     1  UNL1        0.2120
     21 C          62.6594   82.7734   13.3963 C.ar    1  UNL1        0.1552
     22 N          62.4464   84.1659   13.9116 N.ar    1  UNL1       -0.1642
     23 N          62.7847   85.1249   12.8089 N.ar    1  UNL1       -0.2414
     24 C          63.2067   84.3251   11.6122 C.ar    1  UNL1        0.0800
     25 C          63.6515   84.7324   10.2388 C.ar    1  UNL1        0.0188
     26 C          64.0188   83.6864    9.2285 C.ar    1  UNL1        0.0015
     27 C          63.9414   82.2331    9.5915 C.ar    1  UNL1        0.0001
     28 C          63.4966   81.8257   10.9649 C.ar    1  UNL1        0.0032
     29 C          63.1292   82.8718   11.9752 C.ar    1  UNL1        0.0411
     30 N          61.0498   81.0820   14.5359 N.am    1  UNL1       -0.3240
     31 C          62.4408   81.5051   14.1669 C.2     1  UNL1        0.2623
     32 O          63.6131   80.6600   14.5684 O.2     1  UNL1       -0.2687
     33 H          60.9063   80.2496   15.0416 H       1  UNL1        0.1453
     34 H          60.2803   81.6367   14.2724 H       1  UNL1        0.1453
@<TRIPOS>BOND
     1    30    31   am
     2    31    32    2
     3    31    21    1
     4    21    22   ar
     5    22    23   ar
     6    23    20    1
     7    20     1    1
     8     1     2    2
     9     1     3   am
    10     3     4    1
    11     4     5    1
    12     6     5    1
    13     6     7    1
    14     7     8    1
    15     8     9    1
    16     9    10    2
    17     9    11   am
    18    11    13    1
    19    13    14   ar
    20    14    15   ar
    21    15    16   ar
    22    16    17   ar
    23    17    18    1
    24    17    19   ar
    25    23    24   ar
    26    24    25   ar
    27    25    26   ar
    28    26    27   ar
    29    27    28   ar
    30    28    29   ar
    31    29    21   ar
    32     8     3    1
    33    19    13   ar
    34    29    24   ar
    35     6     4    1
    36    30    33    1
    37    30    34    1
    38    11    12    1
