@<TRIPOS>MOLECULE
*****
 38 41 0 0 0
SMALL
GASTEIGER

@<TRIPOS>ATOM
      1 C          62.9739   85.0601   13.4577 C.3     1  UNL1        0.1338
      2 C          62.5893   83.9296   14.3654 C.2     1  UNL1        0.0732
      3 C          62.6570   84.4265   15.7790 C.2     1  UNL1        0.1887
      4 O          62.3518   83.6262   17.0105 O.2     1  UNL1       -0.5020
      5 C          63.0834   85.8642   15.7451 C.2     1  UNL1        0.2869
      6 O          63.2795   86.7541   16.9366 O.2     1  UNL1       -0.2662
      7 N          63.2792   86.2558   14.3104 N.am    1  UNL1       -0.2463
      8 H          62.0913   82.7294   16.9338 H       1  UNL1        0.2924
      9 C          62.0292   85.7440   11.1361 C.ar    1  UNL1        0.1371
     10 C          62.0965   85.6887    9.6386 C.ar    1  UNL1        0.0367
     11 C          63.1760   84.8942    8.9653 C.ar    1  UNL1        0.0031
     12 C          64.1881   84.1549    9.7894 C.ar    1  UNL1       -0.0001
     13 C          64.1207   84.2103   11.2869 C.ar    1  UNL1        0.0007
     14 C          63.0413   85.0048   11.9602 C.ar    1  UNL1        0.0344
     15 O          60.9497   86.5386   11.8095 O.3     1  UNL1       -0.4659
     16 C          60.1153   87.4967   11.0121 C.3     1  UNL1        0.2896
     17 C          59.0469   91.2647   11.6528 C.3     1  UNL1        0.1150
     18 N          59.6280   90.0486   10.9944 N.am    1  UNL1       -0.2730
     19 C          60.3028   90.1683    9.6602 C.3     1  UNL1        0.1150
     20 C          59.5342   88.7128   11.6704 C.2     1  UNL1        0.2703
     21 O          58.9005   88.7675   12.8611 O.2     1  UNL1       -0.2708
     22 C          63.7056   87.6061   13.8154 C.ar    1  UNL1        0.0548
     23 C          64.6062   88.4628   14.6550 C.ar    1  UNL1        0.0149
     24 C          65.0325   89.8130   14.1600 C.ar    1  UNL1        0.0013
     25 C          64.5583   90.3066   12.8253 C.ar    1  UNL1        0.0006
     26 C          63.6577   89.4499   11.9855 C.ar    1  UNL1        0.0013
     27 C          63.2314   88.0996   12.4807 C.ar    1  UNL1        0.0149
     28 C          64.9847   91.6568   12.3302 C.ar    1  UNL1        0.0070
     29 C          64.6822   92.2369   10.9804 C.ar    1  UNL1        0.0075
     30 C          65.2989   93.6026   10.9140 C.ar    1  UNL1        0.0355
     31 S          65.9827   93.8666   12.2228 S.2     1  UNL1       -0.0859
     32 C          65.7884   92.6639   13.0980 C.ar    1  UNL1        0.0354
     33 C          62.2046   82.5451   13.9350 C.2     1  UNL1        0.1732
     34 O          61.1477   81.7441   14.1879 O.2     1  UNL1       -0.2915
     35 C          63.1041   81.7664   13.0215 C.3     1  UNL1        0.0554
     36 C          62.2169   81.6025   12.0173 C.3     1  UNL1        0.0077
     37 C          64.2078   81.8543   14.0335 C.3     1  UNL1        0.0077
     38 C          64.0037   80.9877   12.1081 C.3     1  UNL1        0.0077
@<TRIPOS>BOND
     1    17    18    1
     2    18    19    1
     3    18    20   am
     4    20    21    2
     5    20    16    1
     6    16    15    1
     7    15     9    1
     8     9    10   ar
     9    10    11   ar
    10    11    12   ar
    11    12    13   ar
    12    13    14   ar
    13    14     1    1
    14     1     2    1
    15     2    33    1
    16    33    34    2
    17    33    35    1
    18    35    36    1
    19    35    37    1
    20    35    38    1
    21     2     3    2
    22     3     4    1
    23     3     5    1
    24     5     6    2
    25     5     7   am
    26     7    22    1
    27    22    23   ar
    28    23    24   ar
    29    24    25   ar
    30    25    28    1
    31    28    29   ar
    32    29    30   ar
    33    30    31   ar
    34    31    32   ar
    35    25    26   ar
    36    26    27   ar
    37    14     9   ar
    38     7     1    1
    39    27    22   ar
    40    32    28   ar
    41     4     8    1
@<TRIPOS>MOLECULE
*****
 38 41 0 0 0
SMALL
GASTEIGER

@<TRIPOS>ATOM
      1 C          60.7341   94.3009   -1.0708 C.3     1  UNL1        0.1338
      2 C          61.7834   93.7206   -0.1697 C.2     1  UNL1        0.0732
      3 C          61.0922   93.1086    1.0126 C.2     1  UNL1        0.1887
      4 O          61.7603   92.4161    2.1633 O.2     1  UNL1       -0.5020
      5 C          59.6157   93.3107    0.8421 C.2     1  UNL1        0.2869
      6 O          58.5480   92.8558    1.7923 O.2     1  UNL1       -0.2662
      7 N          59.3944   94.0476   -0.4456 N.am    1  UNL1       -0.2463
      8 H          62.6937   92.3369    2.1845 H       1  UNL1        0.2924
      9 C          60.2508   94.5829   -3.6080 C.ar    1  UNL1        0.1371
     10 C          60.4977   95.2920   -4.9065 C.ar    1  UNL1        0.0367
     11 C          61.4751   96.4283   -4.9664 C.ar    1  UNL1        0.0031
     12 C          62.2054   96.8555   -3.7278 C.ar    1  UNL1       -0.0001
     13 C          61.9584   96.1464   -2.4293 C.ar    1  UNL1        0.0007
     14 C          60.9811   95.0101   -2.3694 C.ar    1  UNL1        0.0344
     15 O          59.2734   93.4465   -3.5480 O.3     1  UNL1       -0.4659
     16 C          58.1257   93.3928   -4.5123 C.3     1  UNL1        0.2896
     17 C          55.2352   90.8938   -5.5847 C.3     1  UNL1        0.1150
     18 N          56.0581   92.1424   -5.4671 N.am    1  UNL1       -0.2730
     19 C          55.6365   93.3891   -6.1868 C.3     1  UNL1        0.1150
     20 C          57.3027   92.1443   -4.6299 C.2     1  UNL1        0.2703
     21 O          57.5485   90.9514   -4.0475 O.2     1  UNL1       -0.2708
     22 C          58.0665   94.4589   -1.0090 C.ar    1  UNL1        0.0548
     23 C          56.9833   93.4386   -1.1979 C.ar    1  UNL1        0.0149
     24 C          55.6554   93.8499   -1.7614 C.ar    1  UNL1        0.0013
     25 C          55.4106   95.2817   -2.1359 C.ar    1  UNL1        0.0006
     26 C          56.4938   96.3021   -1.9469 C.ar    1  UNL1        0.0013
     27 C          57.8217   95.8906   -1.3835 C.ar    1  UNL1        0.0149
     28 C          54.0827   95.6930   -2.6993 C.ar    1  UNL1        0.0070
     29 C          53.8054   96.0556   -4.1281 C.ar    1  UNL1        0.0075
     30 C          52.3503   96.4006   -4.2447 C.ar    1  UNL1        0.0355
     31 S          51.7283   96.2513   -2.8879 S.2     1  UNL1       -0.0859
     32 C          52.7991   95.8139   -1.9328 C.ar    1  UNL1        0.0354
     33 C          63.2640   93.7475   -0.4087 C.2     1  UNL1        0.1732
     34 O          64.0524   93.4038   -1.4494 O.2     1  UNL1       -0.2915
     35 C          64.1881   94.2432    0.6638 C.3     1  UNL1        0.0554
     36 C          64.9670   93.1427    0.7316 C.3     1  UNL1        0.0077
     37 C          63.4296   95.5362    0.7197 C.3     1  UNL1        0.0077
     38 C          65.1121   94.7390    1.7363 C.3     1  UNL1        0.0077
@<TRIPOS>BOND
     1    17    18    1
     2    18    19    1
     3    18    20   am
     4    20    21    2
     5    20    16    1
     6    16    15    1
     7    15     9    1
     8     9    10   ar
     9    10    11   ar
    10    11    12   ar
    11    12    13   ar
    12    13    14   ar
    13    14     1    1
    14     1     2    1
    15     2    33    1
    16    33    34    2
    17    33    35    1
    18    35    36    1
    19    35    37    1
    20    35    38    1
    21     2     3    2
    22     3     4    1
    23     3     5    1
    24     5     6    2
    25     5     7   am
    26     7    22    1
    27    22    23   ar
    28    23    24   ar
    29    24    25   ar
    30    25    28    1
    31    28    29   ar
    32    29    30   ar
    33    30    31   ar
    34    31    32   ar
    35    25    26   ar
    36    26    27   ar
    37    14     9   ar
    38     7     1    1
    39    27    22   ar
    40    32    28   ar
    41     4     8    1
@<TRIPOS>MOLECULE
*****
 38 41 0 0 0
SMALL
GASTEIGER

@<TRIPOS>ATOM
      1 C          64.6815   91.4717   13.9114 C.3     1  UNL1        0.1338
      2 C          65.7596   92.4516   14.2683 C.2     1  UNL1        0.0732
      3 C          66.1054   93.2303   13.0338 C.2     1  UNL1        0.1887
      4 O          67.1349   94.3169   12.9364 O.2     1  UNL1       -0.5020
      5 C          65.2410   92.7317   11.9139 C.2     1  UNL1        0.2869
      6 O          65.2543   93.2321   10.4999 O.2     1  UNL1       -0.2662
      7 N          64.3610   91.6448   12.4563 N.am    1  UNL1       -0.2463
      8 H          67.6299   94.5627   13.6931 H       1  UNL1        0.2924
      9 C          63.8337   89.0682   14.4158 C.ar    1  UNL1        0.1371
     10 C          63.1892   88.0873   15.3499 C.ar    1  UNL1        0.0367
     11 C          62.7481   88.5291   16.7138 C.ar    1  UNL1        0.0031
     12 C          62.9515   89.9518   17.1435 C.ar    1  UNL1       -0.0001
     13 C          63.5959   90.9326   16.2095 C.ar    1  UNL1        0.0007
     14 C          64.0370   90.4908   14.8456 C.ar    1  UNL1        0.0344
     15 O          64.2748   88.6264   13.0518 O.3     1  UNL1       -0.4659
     16 C          63.5711   87.4926   12.3667 C.3     1  UNL1        0.2896
     17 C          63.1544   83.5632   12.7351 C.3     1  UNL1        0.1150
     18 N          63.0486   84.9542   12.1839 N.am    1  UNL1       -0.2730
     19 C          62.3145   85.1979   10.8987 C.3     1  UNL1        0.1150
     20 C          63.6769   86.1016   12.9178 C.2     1  UNL1        0.2703
     21 O          64.2996   85.7232   14.0543 O.2     1  UNL1       -0.2708
     22 C          63.3397   90.8675   11.6799 C.ar    1  UNL1        0.0548
     23 C          61.9593   90.6789   12.2354 C.ar    1  UNL1        0.0149
     24 C          60.9380   89.9016   11.4590 C.ar    1  UNL1        0.0013
     25 C          61.2972   89.3129   10.1270 C.ar    1  UNL1        0.0006
     26 C          62.6778   89.5014    9.5713 C.ar    1  UNL1        0.0013
     27 C          63.6989   90.2787   10.3479 C.ar    1  UNL1        0.0149
     28 C          60.2760   88.5356    9.3506 C.ar    1  UNL1        0.0070
     29 C          59.7062   87.2015    9.7323 C.ar    1  UNL1        0.0075
     30 C          58.7233   86.7973    8.6738 C.ar    1  UNL1        0.0355
     31 S          58.6856   87.8815    7.6379 S.2     1  UNL1       -0.0859
     32 C          59.6452   88.9558    8.0563 C.ar    1  UNL1        0.0354
     33 C          66.3826   92.6228   15.6221 C.2     1  UNL1        0.1732
     34 O          65.8893   92.8137   16.8642 O.2     1  UNL1       -0.2915
     35 C          67.8750   92.5960   15.7698 C.3     1  UNL1        0.0554
     36 C          68.0245   93.8786   16.1637 C.3     1  UNL1        0.0077
     37 C          67.8911   91.1569   15.3468 C.3     1  UNL1        0.0077
     38 C          69.3675   92.5692   15.9174 C.3     1  UNL1        0.0077
@<TRIPOS>BOND
     1    17    18    1
     2    18    19    1
     3    18    20   am
     4    20    21    2
     5    20    16    1
     6    16    15    1
     7    15     9    1
     8     9    10   ar
     9    10    11   ar
    10    11    12   ar
    11    12    13   ar
    12    13    14   ar
    13    14     1    1
    14     1     2    1
    15     2    33    1
    16    33    34    2
    17    33    35    1
    18    35    36    1
    19    35    37    1
    20    35    38    1
    21     2     3    2
    22     3     4    1
    23     3     5    1
    24     5     6    2
    25     5     7   am
    26     7    22    1
    27    22    23   ar
    28    23    24   ar
    29    24    25   ar
    30    25    28    1
    31    28    29   ar
    32    29    30   ar
    33    30    31   ar
    34    31    32   ar
    35    25    26   ar
    36    26    27   ar
    37    14     9   ar
    38     7     1    1
    39    27    22   ar
    40    32    28   ar
    41     4     8    1
@<TRIPOS>MOLECULE
*****
 38 41 0 0 0
SMALL
GASTEIGER

@<TRIPOS>ATOM
      1 C          63.0484   89.0003   12.1396 C.3     1  UNL1        0.1338
      2 C          62.0472   88.7338   11.0549 C.2     1  UNL1        0.0732
      3 C          62.0797   89.8900   10.0998 C.2     1  UNL1        0.1887
      4 O          61.2385   90.0390    8.8668 O.2     1  UNL1       -0.5020
      5 C          63.1011   90.8711   10.5942 C.2     1  UNL1        0.2869
      6 O          63.4606   92.1734    9.9424 O.2     1  UNL1       -0.2662
      7 N          63.6998   90.3212   11.8548 N.am    1  UNL1       -0.2463
      8 H          60.6235   89.3710    8.6358 H       1  UNL1        0.2924
      9 C          63.5871   86.6397   13.0817 C.ar    1  UNL1        0.1371
     10 C          63.8848   85.7428   14.2465 C.ar    1  UNL1        0.0367
     11 C          63.9415   86.3095   15.6341 C.ar    1  UNL1        0.0031
     12 C          63.7006   87.7732   15.8569 C.ar    1  UNL1       -0.0001
     13 C          63.4029   88.6701   14.6921 C.ar    1  UNL1        0.0007
     14 C          63.3461   88.1034   13.3045 C.ar    1  UNL1        0.0344
     15 O          63.5304   86.0730   11.6940 O.3     1  UNL1       -0.4659
     16 C          62.9434   84.7121   11.4631 C.3     1  UNL1        0.2896
     17 C          64.3229   81.2874   12.9188 C.3     1  UNL1        0.1150
     18 N          63.4743   82.5109   12.7371 N.am    1  UNL1       -0.2730
     19 C          62.3079   82.7567   13.6477 C.3     1  UNL1        0.1150
     20 C          63.7920   83.4886   11.6448 C.2     1  UNL1        0.2703
     21 O          64.8675   83.1297   10.9120 O.2     1  UNL1       -0.2708
     22 C          64.7631   90.9771   12.6850 C.ar    1  UNL1        0.0548
     23 C          64.6895   90.9172   14.1819 C.ar    1  UNL1        0.0149
     24 C          65.7528   91.5730   15.0121 C.ar    1  UNL1        0.0013
     25 C          66.8899   92.2888   14.3452 C.ar    1  UNL1        0.0006
     26 C          66.9636   92.3488   12.8481 C.ar    1  UNL1        0.0013
     27 C          65.9002   91.6929   12.0181 C.ar    1  UNL1        0.0149
     28 C          67.9532   92.9447   15.1753 C.ar    1  UNL1        0.0070
     29 C          68.9865   92.2389   16.0024 C.ar    1  UNL1        0.0075
     30 C          69.8419   93.2795   16.6624 C.ar    1  UNL1        0.0355
     31 S          69.3372   94.6284   16.2432 S.2     1  UNL1       -0.0859
     32 C          68.1699   94.4214   15.3241 C.ar    1  UNL1        0.0354
     33 C          61.1678   87.5237   10.9447 C.2     1  UNL1        0.1732
     34 O          60.5753   86.7098   11.8443 O.2     1  UNL1       -0.2915
     35 C          60.7852   86.9950    9.5941 C.3     1  UNL1        0.0554
     36 C          62.0167   86.5855    9.2226 C.3     1  UNL1        0.0077
     37 C          59.3594   87.3885    9.8441 C.3     1  UNL1        0.0077
     38 C          60.4024   86.4664    8.2436 C.3     1  UNL1        0.0077
@<TRIPOS>BOND
     1    17    18    1
     2    18    19    1
     3    18    20   am
     4    20    21    2
     5    20    16    1
     6    16    15    1
     7    15     9    1
     8     9    10   ar
     9    10    11   ar
    10    11    12   ar
    11    12    13   ar
    12    13    14   ar
    13    14     1    1
    14     1     2    1
    15     2    33    1
    16    33    34    2
    17    33    35    1
    18    35    36    1
    19    35    37    1
    20    35    38    1
    21     2     3    2
    22     3     4    1
    23     3     5    1
    24     5     6    2
    25     5     7   am
    26     7    22    1
    27    22    23   ar
    28    23    24   ar
    29    24    25   ar
    30    25    28    1
    31    28    29   ar
    32    29    30   ar
    33    30    31   ar
    34    31    32   ar
    35    25    26   ar
    36    26    27   ar
    37    14     9   ar
    38     7     1    1
    39    27    22   ar
    40    32    28   ar
    41     4     8    1
