@<TRIPOS>MOLECULE
*****
 45 49 0 0 0
SMALL
GASTEIGER

@<TRIPOS>ATOM
      1 C          65.8673   93.2632   12.7089 C.2     1  UNL1        0.2437
      2 O          66.6870   93.1531   13.9604 O.2     1  UNL1       -0.2731
      3 N          65.0037   92.1162   12.2746 N.am    1  UNL1       -0.2778
      4 C          64.1338   92.0806   11.0532 C.3     1  UNL1        0.0956
      5 C          63.4509   90.7458   11.0092 C.3     1  UNL1        0.0497
      6 C          63.8988   89.9565   12.2035 C.3     1  UNL1        0.1528
      7 C          63.5567   88.5758   12.6799 C.ar    1  UNL1        0.0146
      8 C          62.5970   87.7289   11.8978 C.ar    1  UNL1        0.0956
      9 N          62.2549   86.3483   12.3743 N.ar    1  UNL1       -0.2453
     10 C          62.8725   85.8147   13.6327 C.ar    1  UNL1        0.1046
     11 C          63.8322   86.6616   14.4148 C.ar    1  UNL1        0.0134
     12 C          64.1743   88.0422   13.9384 C.ar    1  UNL1       -0.0217
     13 C          65.1340   88.8892   14.7205 C.3     1  UNL1        0.0279
     14 C          65.4761   90.2697   14.2441 C.3     1  UNL1        0.0265
     15 C          64.8585   90.8034   12.9856 C.3     1  UNL1        0.1002
     16 N          66.2285   94.6100   10.4285 N.am    1  UNL1       -0.2719
     17 C          66.1589   96.0535   10.0267 C.2     1  UNL1        0.2260
     18 O          66.4062   96.5988    8.6513 O.2     1  UNL1       -0.2749
     19 C          65.7986   96.8560   11.2417 C.3     1  UNL1        0.0875
     20 C          65.6456   95.9084   12.3944 C.3     1  UNL1        0.0388
     21 C          65.9112   94.5203   11.8918 C.3     1  UNL1        0.1525
     22 C          66.5576   93.4583    9.5255 C.3     1  UNL1        0.1100
     23 C          67.9215   92.8357    9.5709 C.3     1  UNL1        0.1268
     24 N          68.8964   91.5416   12.0958 N.1     1  UNL1       -0.1958
     25 C          68.4089   92.1886   10.8333 C.1     1  UNL1        0.0750
     26 S          62.9277   89.2297   11.3210 S.O2    1  UNL1        0.0106
     27 O          63.3878   88.8942   10.7632 O.2     1  UNL1       -0.1684
     28 O          61.7932   89.6991   12.1827 O.2     1  UNL1       -0.1684
     29 C          61.9566   88.5029   10.4384 C.ar    1  UNL1        0.1061
     30 C          60.4907   88.8083   10.5253 C.ar    1  UNL1        0.0207
     31 C          59.5196   88.0815    9.6427 C.ar    1  UNL1        0.0310
     32 C          60.0145   87.0494    8.6734 C.ar    1  UNL1        0.1402
     33 F          59.0435   86.3226    7.7908 F       1  UNL1       -0.2042
     34 C          61.4806   86.7440    8.5866 C.ar    1  UNL1        0.0310
     35 C          62.4515   87.4707    9.4691 C.ar    1  UNL1        0.0207
     36 C          62.5304   84.4341   14.1091 C.3     1  UNL1        0.3398
     37 F          61.4474   85.0022   14.9776 F       1  UNL1       -0.2160
     38 C          62.1883   83.0535   14.5855 C.3     1  UNL1        0.4378
     39 F          61.8461   81.6729   15.0619 F       1  UNL1       -0.1666
     40 F          62.3423   83.5060   16.0073 F       1  UNL1       -0.1666
     41 F          61.9937   82.4361   13.2324 F       1  UNL1       -0.1666
     42 C          63.6134   83.8660   13.2406 C.3     1  UNL1        0.4378
     43 F          64.6965   83.2979   12.3721 F       1  UNL1       -0.1666
     44 F          64.5221   83.4220   14.3483 F       1  UNL1       -0.1666
     45 F          63.1162   84.0949   11.8440 F       1  UNL1       -0.1666
@<TRIPOS>BOND
     1    24    25    3
     2    25    23    1
     3    23    22    1
     4    22    16    1
     5    16    17   am
     6    17    18    2
     7    17    19    1
     8    19    20    1
     9    20    21    1
    10    21     1    1
    11     1     2    2
    12     1     3   am
    13     3     4    1
    14     4     5    1
    15     5     6    1
    16     6    26    1
    17    26    27    2
    18    26    28    2
    19    26    29    1
    20    29    30   ar
    21    30    31   ar
    22    31    32   ar
    23    32    33    1
    24    32    34   ar
    25    34    35   ar
    26     6     7    1
    27     7     8   ar
    28     8     9   ar
    29     9    10   ar
    30    10    36    1
    31    36    37    1
    32    36    38    1
    33    38    39    1
    34    38    40    1
    35    38    41    1
    36    36    42    1
    37    42    43    1
    38    42    44    1
    39    42    45    1
    40    10    11   ar
    41    11    12   ar
    42    12    13    1
    43    13    14    1
    44    15    14    1
    45    21    16    1
    46    15     3    1
    47    15     6    1
    48    35    29   ar
    49    12     7   ar
@<TRIPOS>MOLECULE
*****
 45 49 0 0 0
SMALL
GASTEIGER

@<TRIPOS>ATOM
      1 C          59.3616   88.8797    6.6611 C.2     1  UNL1        0.2437
      2 O          58.9797   87.5224    6.1493 O.2     1  UNL1       -0.2731
      3 N          60.1784   89.0068    7.9129 N.am    1  UNL1       -0.2778
      4 C          60.6338   90.2900    8.5421 C.3     1  UNL1        0.0956
      5 C          61.4200   89.9492    9.7732 C.3     1  UNL1        0.0497
      6 C          61.4505   88.4553    9.9048 C.3     1  UNL1        0.1528
      7 C          62.0780   87.5501   10.9232 C.ar    1  UNL1        0.0146
      8 C          62.8453   88.1325   12.0729 C.ar    1  UNL1        0.0956
      9 N          63.4727   87.2273   13.0912 N.ar    1  UNL1       -0.2453
     10 C          63.3327   85.7396   12.9597 C.ar    1  UNL1        0.1046
     11 C          62.5654   85.1572   11.8100 C.ar    1  UNL1        0.0134
     12 C          61.9380   86.0624   10.7917 C.ar    1  UNL1       -0.0217
     13 C          61.1706   85.4800    9.6419 C.3     1  UNL1        0.0279
     14 C          60.5432   86.3852    8.6237 C.3     1  UNL1        0.0265
     15 C          60.6832   87.8728    8.7551 C.3     1  UNL1        0.1002
     16 N          59.8222   91.0482    5.1677 N.am    1  UNL1       -0.2719
     17 C          58.9691   92.1361    4.5858 C.2     1  UNL1        0.2260
     18 O          59.4538   93.2877    3.7556 O.2     1  UNL1       -0.2749
     19 C          57.5464   91.8703    4.9797 C.3     1  UNL1        0.0875
     20 C          57.5202   90.6181    5.8050 C.3     1  UNL1        0.0388
     21 C          58.9268   90.1099    5.9213 C.3     1  UNL1        0.1525
     22 C          61.3097   90.9208    5.0217 C.3     1  UNL1        0.1100
     23 C          61.9204   90.7824    3.6586 C.3     1  UNL1        0.1268
     24 N          63.4879   93.0524    2.4796 N.1     1  UNL1       -0.1958
     25 C          62.7041   91.9174    3.0691 C.1     1  UNL1        0.0750
     26 S          62.1842   89.1790   10.9947 S.O2    1  UNL1        0.0106
     27 O          62.9164   89.2842   10.6974 O.2     1  UNL1       -0.1684
     28 O          60.9475   89.1554   11.8431 O.2     1  UNL1       -0.1684
     29 C          62.9181   89.9027   12.0847 C.ar    1  UNL1        0.1061
     30 C          64.0909   90.7750   11.7480 C.ar    1  UNL1        0.0207
     31 C          64.8247   91.4987   12.8378 C.ar    1  UNL1        0.0310
     32 C          64.3856   91.3501   14.2643 C.ar    1  UNL1        0.1402
     33 F          65.1194   92.0738   15.3543 F       1  UNL1       -0.2042
     34 C          63.2127   90.4777   14.6011 C.ar    1  UNL1        0.0310
     35 C          62.4790   89.7541   13.5112 C.ar    1  UNL1        0.0207
     36 C          63.9602   84.8344   13.9781 C.3     1  UNL1        0.3398
     37 F          64.8706   85.9470   14.4061 F       1  UNL1       -0.2160
     38 C          64.5876   83.9293   14.9964 C.3     1  UNL1        0.4378
     39 F          65.2150   83.0241   16.0148 F       1  UNL1       -0.1666
     40 F          65.9477   84.2797   14.4699 F       1  UNL1       -0.1666
     41 F          63.3141   83.4711   15.6432 F       1  UNL1       -0.1666
     42 C          63.0498   83.7218   13.5501 C.3     1  UNL1        0.4378
     43 F          62.1393   82.6091   13.1220 F       1  UNL1       -0.1666
     44 F          61.7799   84.3046   14.0955 F       1  UNL1       -0.1666
     45 F          63.9625   82.7502   12.8623 F       1  UNL1       -0.1666
@<TRIPOS>BOND
     1    24    25    3
     2    25    23    1
     3    23    22    1
     4    22    16    1
     5    16    17   am
     6    17    18    2
     7    17    19    1
     8    19    20    1
     9    20    21    1
    10    21     1    1
    11     1     2    2
    12     1     3   am
    13     3     4    1
    14     4     5    1
    15     5     6    1
    16     6    26    1
    17    26    27    2
    18    26    28    2
    19    26    29    1
    20    29    30   ar
    21    30    31   ar
    22    31    32   ar
    23    32    33    1
    24    32    34   ar
    25    34    35   ar
    26     6     7    1
    27     7     8   ar
    28     8     9   ar
    29     9    10   ar
    30    10    36    1
    31    36    37    1
    32    36    38    1
    33    38    39    1
    34    38    40    1
    35    38    41    1
    36    36    42    1
    37    42    43    1
    38    42    44    1
    39    42    45    1
    40    10    11   ar
    41    11    12   ar
    42    12    13    1
    43    13    14    1
    44    15    14    1
    45    21    16    1
    46    15     3    1
    47    15     6    1
    48    35    29   ar
    49    12     7   ar
