@<TRIPOS>MOLECULE
*****
 33 35 0 0 0
SMALL
GASTEIGER

@<TRIPOS>ATOM
      1 C          63.7380   85.8415   13.5137 C.ar    1  UNL1        0.1306
      2 C          63.4869   87.2347   13.0180 C.ar    1  UNL1        0.0115
      3 C          62.6274   87.4571   11.8090 C.ar    1  UNL1       -0.0048
      4 C          62.0189   86.2863   11.0957 C.ar    1  UNL1       -0.0102
      5 C          62.2699   84.8931   11.5914 C.ar    1  UNL1       -0.0048
      6 C          63.1295   84.6706   12.8004 C.ar    1  UNL1        0.0106
      7 C          61.1593   86.5087    9.8867 C.3     1  UNL1        0.1227
      8 C          61.4060   85.7190    8.6355 C.2     1  UNL1       -0.0115
      9 C          60.5464   85.9415    7.4265 C.2     1  UNL1        0.0141
     10 C          59.4402   86.9535    7.4687 C.2     1  UNL1        0.0883
     11 N          59.1935   87.7432    8.7199 N.am    1  UNL1       -0.1774
     12 C          60.0531   87.5208    9.9289 C.2     1  UNL1        0.2533
     13 O          59.8063   88.3106   11.1801 O.2     1  UNL1       -0.2723
     14 C          63.3806   83.2773   13.2961 C.3     1  UNL1        0.0218
     15 C          62.2397   83.4148   14.2602 C.3     1  UNL1        0.0045
     16 C          64.5214   83.1398   12.3320 C.3     1  UNL1        0.0045
     17 C          63.6316   81.8840   13.7918 C.3     1  UNL1        0.0045
     18 C          64.0110   85.7593   16.0961 C.3     1  UNL1        0.2524
     19 O          64.5976   85.6191   14.7227 O.3     1  UNL1       -0.4721
     20 C          64.0954   88.4057   13.7313 C.3     1  UNL1        0.0341
     21 C          63.4941   89.7714   13.5795 C.3     1  UNL1        0.0311
     22 C          64.3271   90.9038   13.0561 C.ar    1  UNL1       -0.0218
     23 C          64.1349   91.3886   11.6497 C.ar    1  UNL1       -0.0029
     24 C          64.9679   92.5209   11.1263 C.ar    1  UNL1        0.0155
     25 C          65.9930   93.1684   12.0094 C.ar    1  UNL1        0.0644
     26 C          66.1852   92.6836   13.4158 C.ar    1  UNL1        0.0155
     27 C          65.3522   91.5513   13.9391 C.ar    1  UNL1       -0.0029
     28 N          66.8261   94.3008   11.4859 N.pl3   1  UNL1       -0.2187
     29 H          67.2364   94.9403   12.1119 H       1  UNL1        0.1734
     30 S          67.0338   94.4587   10.0088 S.O2    1  UNL1        0.0558
     31 C          67.2415   94.6166    8.5317 C.3     1  UNL1        0.1996
     32 O          68.1109   93.4156   10.0488 O.2     1  UNL1       -0.1544
     33 O          65.9567   95.5018    9.9689 O.2     1  UNL1       -0.1544
@<TRIPOS>BOND
     1    18    19    1
     2    19     1    1
     3     1     2   ar
     4     2    20    1
     5    20    21    1
     6    21    22    1
     7    22    23   ar
     8    23    24   ar
     9    24    25   ar
    10    25    28    1
    11    28    30    1
    12    30    31    1
    13    30    32    2
    14    30    33    2
    15    25    26   ar
    16    26    27   ar
    17     2     3   ar
    18     3     4   ar
    19     4     7    1
    20     7     8    1
    21     8     9    2
    22     9    10    1
    23    10    11    2
    24    11    12    1
    25    12    13    2
    26     4     5   ar
    27     5     6   ar
    28     6    14    1
    29    14    15    1
    30    14    16    1
    31    14    17    1
    32     6     1   ar
    33    27    22   ar
    34    12     7    1
    35    28    29    1
@<TRIPOS>MOLECULE
*****
 33 35 0 0 0
SMALL
GASTEIGER

@<TRIPOS>ATOM
      1 C          65.5359   92.1920   12.8347 C.ar    1  UNL1        0.1306
      2 C          64.6429   91.2733   13.6147 C.ar    1  UNL1        0.0115
      3 C          63.5817   90.4817   12.9096 C.ar    1  UNL1       -0.0048
      4 C          63.4134   90.6089   11.4245 C.ar    1  UNL1       -0.0102
      5 C          64.3064   91.5276   10.6445 C.ar    1  UNL1       -0.0048
      6 C          65.3676   92.3192   11.3496 C.ar    1  UNL1        0.0106
      7 C          62.3521   89.8173   10.7195 C.3     1  UNL1        0.1227
      8 C          61.4586   90.4864    9.7176 C.2     1  UNL1       -0.0115
      9 C          60.3973   89.6949    9.0125 C.2     1  UNL1        0.0141
     10 C          60.2296   88.2341    9.3093 C.2     1  UNL1        0.0883
     11 N          61.1231   87.5650   10.3112 N.am    1  UNL1       -0.1774
     12 C          62.1844   88.3566   11.0162 C.2     1  UNL1        0.2533
     13 O          63.0780   87.6874   12.0182 O.2     1  UNL1       -0.2723
     14 C          66.2607   93.2380   10.5695 C.3     1  UNL1        0.0218
     15 C          65.2966   94.3650   10.7934 C.3     1  UNL1        0.0045
     16 C          67.2248   92.1109   10.3456 C.3     1  UNL1        0.0045
     17 C          67.1536   94.1567    9.7895 C.3     1  UNL1        0.0045
     18 C          67.8695   92.3158   13.9699 C.3     1  UNL1        0.2524
     19 O          66.5972   92.9836   13.5397 O.3     1  UNL1       -0.4721
     20 C          64.8112   91.1461   15.0998 C.3     1  UNL1        0.0341
     21 C          63.7389   90.4962   15.9231 C.3     1  UNL1        0.0311
     22 C          63.6724   89.0010   16.0227 C.ar    1  UNL1       -0.0218
     23 C          64.3466   88.1497   14.9880 C.ar    1  UNL1       -0.0029
     24 C          64.2800   86.6545   15.0876 C.ar    1  UNL1        0.0155
     25 C          63.5393   86.0106   16.2219 C.ar    1  UNL1        0.0644
     26 C          62.8651   86.8619   17.2567 C.ar    1  UNL1        0.0155
     27 C          62.9316   88.3571   17.1571 C.ar    1  UNL1       -0.0029
     28 N          63.4727   84.5154   16.3215 N.pl3   1  UNL1       -0.2187
     29 H          63.7530   84.0643   17.1505 H       1  UNL1        0.1734
     30 S          62.9792   83.7075   15.1581 S.O2    1  UNL1        0.0558
     31 C          62.4856   82.8995   13.9947 C.3     1  UNL1        0.1996
     32 O          61.7429   84.5546   15.0943 O.2     1  UNL1       -0.1544
     33 O          64.2154   82.8603   15.2219 O.2     1  UNL1       -0.1544
@<TRIPOS>BOND
     1    18    19    1
     2    19     1    1
     3     1     2   ar
     4     2    20    1
     5    20    21    1
     6    21    22    1
     7    22    23   ar
     8    23    24   ar
     9    24    25   ar
    10    25    28    1
    11    28    30    1
    12    30    31    1
    13    30    32    2
    14    30    33    2
    15    25    26   ar
    16    26    27   ar
    17     2     3   ar
    18     3     4   ar
    19     4     7    1
    20     7     8    1
    21     8     9    2
    22     9    10    1
    23    10    11    2
    24    11    12    1
    25    12    13    2
    26     4     5   ar
    27     5     6   ar
    28     6    14    1
    29    14    15    1
    30    14    16    1
    31    14    17    1
    32     6     1   ar
    33    27    22   ar
    34    12     7    1
    35    28    29    1
@<TRIPOS>MOLECULE
*****
 33 35 0 0 0
SMALL
GASTEIGER

@<TRIPOS>ATOM
      1 C          61.7902   87.7003    9.6886 C.ar    1  UNL1        0.1306
      2 C          62.1592   88.2516   11.0339 C.ar    1  UNL1        0.0115
      3 C          62.6109   87.3270   12.1252 C.ar    1  UNL1       -0.0048
      4 C          62.6937   85.8510   11.8712 C.ar    1  UNL1       -0.0102
      5 C          62.3247   85.2996   10.5260 C.ar    1  UNL1       -0.0048
      6 C          61.8730   86.2243    9.4346 C.ar    1  UNL1        0.0106
      7 C          63.1454   84.9263   12.9626 C.3     1  UNL1        0.1227
      8 C          62.8798   83.4539   12.8558 C.2     1  UNL1       -0.0115
      9 C          63.3315   82.5293   13.9471 C.2     1  UNL1        0.0141
     10 C          64.0488   83.0770   15.1452 C.2     1  UNL1        0.0883
     11 N          64.3144   84.5495   15.2519 N.am    1  UNL1       -0.1774
     12 C          63.8627   85.4741   14.1606 C.2     1  UNL1        0.2533
     13 O          64.1283   86.9466   14.2674 O.2     1  UNL1       -0.2723
     14 C          61.5040   85.6729    8.0893 C.3     1  UNL1        0.0218
     15 C          60.0802   86.0910    8.3085 C.3     1  UNL1        0.0045
     16 C          62.9277   85.2547    7.8701 C.3     1  UNL1        0.0045
     17 C          61.1350   85.1215    6.7440 C.3     1  UNL1        0.0045
     18 C          59.9990   89.2940    8.6877 C.3     1  UNL1        0.2524
     19 O          61.3385   88.6249    8.5973 O.3     1  UNL1       -0.4721
     20 C          62.0764   89.7277   11.2879 C.3     1  UNL1        0.0341
     21 C          63.0592   90.6566   10.6390 C.3     1  UNL1        0.0311
     22 C          64.0550   91.4007   11.4786 C.ar    1  UNL1       -0.0218
     23 C          64.2199   91.0555   12.9290 C.ar    1  UNL1       -0.0029
     24 C          65.2156   91.7995   13.7685 C.ar    1  UNL1        0.0155
     25 C          66.0465   92.8888   13.1576 C.ar    1  UNL1        0.0644
     26 C          65.8817   93.2339   11.7072 C.ar    1  UNL1        0.0155
     27 C          64.8860   92.4899   10.8677 C.ar    1  UNL1       -0.0029
     28 N          67.0424   93.6328   13.9972 N.pl3   1  UNL1       -0.2187
     29 H          67.1459   94.6061   13.8913 H       1  UNL1        0.1734
     30 S          67.8804   92.8939   14.9980 S.O2    1  UNL1        0.0558
     31 C          68.7184   92.1550   15.9988 C.3     1  UNL1        0.1996
     32 O          68.7177   92.3365   13.8853 O.2     1  UNL1       -0.1544
     33 O          67.0431   93.4513   16.1107 O.2     1  UNL1       -0.1544
@<TRIPOS>BOND
     1    18    19    1
     2    19     1    1
     3     1     2   ar
     4     2    20    1
     5    20    21    1
     6    21    22    1
     7    22    23   ar
     8    23    24   ar
     9    24    25   ar
    10    25    28    1
    11    28    30    1
    12    30    31    1
    13    30    32    2
    14    30    33    2
    15    25    26   ar
    16    26    27   ar
    17     2     3   ar
    18     3     4   ar
    19     4     7    1
    20     7     8    1
    21     8     9    2
    22     9    10    1
    23    10    11    2
    24    11    12    1
    25    12    13    2
    26     4     5   ar
    27     5     6   ar
    28     6    14    1
    29    14    15    1
    30    14    16    1
    31    14    17    1
    32     6     1   ar
    33    27    22   ar
    34    12     7    1
    35    28    29    1
@<TRIPOS>MOLECULE
*****
 33 35 0 0 0
SMALL
GASTEIGER

@<TRIPOS>ATOM
      1 C          61.9063   87.7013    9.9778 C.ar    1  UNL1        0.1306
      2 C          62.3680   88.1198   11.3422 C.ar    1  UNL1        0.0115
      3 C          62.7794   87.0833   12.3454 C.ar    1  UNL1       -0.0048
      4 C          62.7291   85.6283   11.9842 C.ar    1  UNL1       -0.0102
      5 C          62.2673   85.2098   10.6198 C.ar    1  UNL1       -0.0048
      6 C          61.8559   86.2463    9.6166 C.ar    1  UNL1        0.0106
      7 C          63.1404   84.5918   12.9874 C.3     1  UNL1        0.1227
      8 C          62.9446   83.1358   12.6848 C.2     1  UNL1       -0.0115
      9 C          63.3560   82.0993   13.6880 C.2     1  UNL1        0.0141
     10 C          63.9632   82.5188   14.9938 C.2     1  UNL1        0.0883
     11 N          64.1591   83.9748   15.2964 N.am    1  UNL1       -0.1774
     12 C          63.7477   85.0113   14.2932 C.2     1  UNL1        0.2533
     13 O          63.9436   86.4674   14.5959 O.2     1  UNL1       -0.2723
     14 C          61.3941   85.8278    8.2522 C.3     1  UNL1        0.0218
     15 C          60.0028   86.2791    8.5847 C.3     1  UNL1        0.0045
     16 C          62.7854   85.3765    7.9197 C.3     1  UNL1        0.0045
     17 C          60.9322   85.4093    6.8878 C.3     1  UNL1        0.0045
     18 C          60.1973   89.4712    9.1431 C.3     1  UNL1        0.2524
     19 O          61.4949   88.7378    8.9746 O.3     1  UNL1       -0.4721
     20 C          62.4184   89.5748   11.7035 C.3     1  UNL1        0.0341
     21 C          63.4522   90.0723   12.6698 C.3     1  UNL1        0.0311
     22 C          64.3239   91.2364   12.3022 C.ar    1  UNL1       -0.0218
     23 C          64.2991   91.7800   10.9045 C.ar    1  UNL1       -0.0029
     24 C          65.1707   92.9441   10.5370 C.ar    1  UNL1        0.0155
     25 C          66.0672   93.5646   11.5672 C.ar    1  UNL1        0.0644
     26 C          66.0920   93.0209   12.9650 C.ar    1  UNL1        0.0155
     27 C          65.2203   91.8568   13.3325 C.ar    1  UNL1       -0.0029
     28 N          66.9389   94.7287   11.1997 N.pl3   1  UNL1       -0.2187
     29 H          67.3535   95.2754   11.9057 H       1  UNL1        0.1734
     30 S          67.1787   95.0598    9.7565 S.O2    1  UNL1        0.0558
     31 C          67.4186   95.3910    8.3134 C.3     1  UNL1        0.1996
     32 O          68.2911   94.0547    9.7107 O.2     1  UNL1       -0.1544
     33 O          66.0663   96.0650    9.8023 O.2     1  UNL1       -0.1544
@<TRIPOS>BOND
     1    18    19    1
     2    19     1    1
     3     1     2   ar
     4     2    20    1
     5    20    21    1
     6    21    22    1
     7    22    23   ar
     8    23    24   ar
     9    24    25   ar
    10    25    28    1
    11    28    30    1
    12    30    31    1
    13    30    32    2
    14    30    33    2
    15    25    26   ar
    16    26    27   ar
    17     2     3   ar
    18     3     4   ar
    19     4     7    1
    20     7     8    1
    21     8     9    2
    22     9    10    1
    23    10    11    2
    24    11    12    1
    25    12    13    2
    26     4     5   ar
    27     5     6   ar
    28     6    14    1
    29    14    15    1
    30    14    16    1
    31    14    17    1
    32     6     1   ar
    33    27    22   ar
    34    12     7    1
    35    28    29    1
@<TRIPOS>MOLECULE
*****
 33 35 0 0 0
SMALL
GASTEIGER

@<TRIPOS>ATOM
      1 C          65.2193   91.9471   12.7145 C.ar    1  UNL1        0.1306
      2 C          64.0720   91.0879   12.2726 C.ar    1  UNL1        0.0115
      3 C          63.6732   89.8926   13.0863 C.ar    1  UNL1       -0.0048
      4 C          64.4217   89.5565   14.3420 C.ar    1  UNL1       -0.0102
      5 C          65.5690   90.4158   14.7839 C.ar    1  UNL1       -0.0048
      6 C          65.9678   91.6111   13.9702 C.ar    1  UNL1        0.0106
      7 C          64.0229   88.3612   15.1558 C.3     1  UNL1        0.1227
      8 C          64.4382   86.9866   14.7226 C.2     1  UNL1       -0.0115
      9 C          64.0394   85.7913   15.5363 C.2     1  UNL1        0.0141
     10 C          63.2253   85.9706   16.7833 C.2     1  UNL1        0.0883
     11 N          62.8100   87.3453   17.2165 N.am    1  UNL1       -0.1774
     12 C          63.2088   88.5406   16.4027 C.2     1  UNL1        0.2533
     13 O          62.7934   89.9153   16.8360 O.2     1  UNL1       -0.2723
     14 C          67.1151   92.4704   14.4122 C.3     1  UNL1        0.0218
     15 C          68.0239   91.7436   13.4658 C.3     1  UNL1        0.0045
     16 C          66.2063   93.1972   15.3585 C.3     1  UNL1        0.0045
     17 C          68.2624   93.3296   14.8541 C.3     1  UNL1        0.0045
     18 C          66.4258   92.9625   10.6497 C.3     1  UNL1        0.2524
     19 O          65.6181   93.1425   11.9007 O.3     1  UNL1       -0.4721
     20 C          63.3234   91.4239   11.0168 C.3     1  UNL1        0.0341
     21 C          61.9186   90.9336   10.8272 C.3     1  UNL1        0.0311
     22 C          61.6712   89.5670   10.2603 C.ar    1  UNL1       -0.0218
     23 C          60.6435   89.3761    9.1845 C.ar    1  UNL1       -0.0029
     24 C          60.3962   88.0096    8.6177 C.ar    1  UNL1        0.0155
     25 C          61.1766   86.8340    9.1266 C.ar    1  UNL1        0.0644
     26 C          62.2043   87.0249   10.2023 C.ar    1  UNL1        0.0155
     27 C          62.4516   88.3915   10.7692 C.ar    1  UNL1       -0.0029
     28 N          60.9292   85.4674    8.5597 N.pl3   1  UNL1       -0.2187
     29 H          60.3007   84.8554    9.0066 H       1  UNL1        0.1734
     30 S          61.6394   85.0332    7.3119 S.O2    1  UNL1        0.0558
     31 C          62.3496   84.5990    6.0641 C.3     1  UNL1        0.1996
     32 O          62.9537   85.1214    8.0293 O.2     1  UNL1       -0.1544
     33 O          60.3251   84.9450    6.5945 O.2     1  UNL1       -0.1544
@<TRIPOS>BOND
     1    18    19    1
     2    19     1    1
     3     1     2   ar
     4     2    20    1
     5    20    21    1
     6    21    22    1
     7    22    23   ar
     8    23    24   ar
     9    24    25   ar
    10    25    28    1
    11    28    30    1
    12    30    31    1
    13    30    32    2
    14    30    33    2
    15    25    26   ar
    16    26    27   ar
    17     2     3   ar
    18     3     4   ar
    19     4     7    1
    20     7     8    1
    21     8     9    2
    22     9    10    1
    23    10    11    2
    24    11    12    1
    25    12    13    2
    26     4     5   ar
    27     5     6   ar
    28     6    14    1
    29    14    15    1
    30    14    16    1
    31    14    17    1
    32     6     1   ar
    33    27    22   ar
    34    12     7    1
    35    28    29    1
@<TRIPOS>MOLECULE
*****
 33 35 0 0 0
SMALL
GASTEIGER

@<TRIPOS>ATOM
      1 C          63.8493   84.8379   13.2858 C.ar    1  UNL1        0.1306
      2 C          63.7455   86.3340   13.3151 C.ar    1  UNL1        0.0115
      3 C          62.9192   87.0488   12.2873 C.ar    1  UNL1       -0.0048
      4 C          62.1967   86.2674   11.2302 C.ar    1  UNL1       -0.0102
      5 C          62.3004   84.7714   11.2010 C.ar    1  UNL1       -0.0048
      6 C          63.1267   84.0566   12.2287 C.ar    1  UNL1        0.0106
      7 C          61.3704   86.9822   10.2024 C.3     1  UNL1        0.1227
      8 C          60.5375   88.1647   10.5998 C.2     1  UNL1       -0.0115
      9 C          59.7112   88.8794    9.5721 C.2     1  UNL1        0.0141
     10 C          59.7178   88.4118    8.1469 C.2     1  UNL1        0.0883
     11 N          60.5508   87.2293    7.7495 N.am    1  UNL1       -0.1774
     12 C          61.3770   86.5145    8.7773 C.2     1  UNL1        0.2533
     13 O          62.2100   85.3320    8.3798 O.2     1  UNL1       -0.2723
     14 C          63.2305   82.5604   12.1994 C.3     1  UNL1        0.0218
     15 C          64.3315   82.6567   11.1853 C.3     1  UNL1        0.0045
     16 C          62.1294   82.4642   13.2135 C.3     1  UNL1        0.0045
     17 C          63.3342   81.0643   12.1701 C.3     1  UNL1        0.0045
     18 C          64.0968   83.8223   15.6643 C.3     1  UNL1        0.2524
     19 O          64.6756   84.1231   14.3136 O.3     1  UNL1       -0.4721
     20 C          64.4681   87.1154   14.3722 C.3     1  UNL1        0.0341
     21 C          63.9304   88.4406   14.8244 C.3     1  UNL1        0.0311
     22 C          64.4644   89.7095   14.2287 C.ar    1  UNL1       -0.0218
     23 C          65.5925   90.4361   14.8990 C.ar    1  UNL1       -0.0029
     24 C          66.1265   91.7049   14.3033 C.ar    1  UNL1        0.0155
     25 C          65.5323   92.2472   13.0372 C.ar    1  UNL1        0.0644
     26 C          64.4042   91.5206   12.3669 C.ar    1  UNL1        0.0155
     27 C          63.8702   90.2518   12.9626 C.ar    1  UNL1       -0.0029
     28 N          66.0663   93.5161   12.4415 N.pl3   1  UNL1       -0.2187
     29 H          66.1021   94.3373   12.9833 H       1  UNL1        0.1734
     30 S          66.5458   93.5337   11.0203 S.O2    1  UNL1        0.0558
     31 C          67.0253   93.5513    9.5992 C.3     1  UNL1        0.1996
     32 O          65.4680   94.5159   10.6689 O.2     1  UNL1       -0.1544
     33 O          67.6236   92.5514   11.3718 O.2     1  UNL1       -0.1544
@<TRIPOS>BOND
     1    18    19    1
     2    19     1    1
     3     1     2   ar
     4     2    20    1
     5    20    21    1
     6    21    22    1
     7    22    23   ar
     8    23    24   ar
     9    24    25   ar
    10    25    28    1
    11    28    30    1
    12    30    31    1
    13    30    32    2
    14    30    33    2
    15    25    26   ar
    16    26    27   ar
    17     2     3   ar
    18     3     4   ar
    19     4     7    1
    20     7     8    1
    21     8     9    2
    22     9    10    1
    23    10    11    2
    24    11    12    1
    25    12    13    2
    26     4     5   ar
    27     5     6   ar
    28     6    14    1
    29    14    15    1
    30    14    16    1
    31    14    17    1
    32     6     1   ar
    33    27    22   ar
    34    12     7    1
    35    28    29    1
@<TRIPOS>MOLECULE
*****
 33 35 0 0 0
SMALL
GASTEIGER

@<TRIPOS>ATOM
      1 C          61.7731   87.9757    9.9152 C.ar    1  UNL1        0.1306
      2 C          62.1490   88.5361   11.2548 C.ar    1  UNL1        0.0115
      3 C          62.6620   87.6263   12.3313 C.ar    1  UNL1       -0.0048
      4 C          62.7993   86.1559   12.0682 C.ar    1  UNL1       -0.0102
      5 C          62.4234   85.5955   10.7287 C.ar    1  UNL1       -0.0048
      6 C          61.9103   86.5054    9.6521 C.ar    1  UNL1        0.0106
      7 C          63.3123   85.2461   13.1448 C.3     1  UNL1        0.1227
      8 C          64.0046   85.8203   14.3452 C.2     1  UNL1       -0.0115
      9 C          64.5177   84.9104   15.4217 C.2     1  UNL1        0.0141
     10 C          64.3385   83.4263   15.2978 C.2     1  UNL1        0.0883
     11 N          63.6463   82.8521   14.0974 N.am    1  UNL1       -0.1774
     12 C          63.1332   83.7620   13.0209 C.2     1  UNL1        0.2533
     13 O          62.4409   83.1877   11.8204 O.2     1  UNL1       -0.2723
     14 C          61.5344   85.9448    8.3125 C.3     1  UNL1        0.0218
     15 C          60.1009   86.3088    8.5624 C.3     1  UNL1        0.0045
     16 C          62.9679   85.5808    8.0625 C.3     1  UNL1        0.0045
     17 C          61.1585   85.3843    6.9729 C.3     1  UNL1        0.0045
     18 C          59.8860   89.4772    8.9486 C.3     1  UNL1        0.2524
     19 O          61.2600   88.8856    8.8387 O.3     1  UNL1       -0.4721
     20 C          62.0117   90.0065   11.5180 C.3     1  UNL1        0.0341
     21 C          63.1585   90.9299   11.2315 C.3     1  UNL1        0.0311
     22 C          64.2666   91.0823   12.2311 C.ar    1  UNL1       -0.0218
     23 C          65.4197   91.9960   11.9390 C.ar    1  UNL1       -0.0029
     24 C          66.5277   92.1483   12.9386 C.ar    1  UNL1        0.0155
     25 C          66.4825   91.3870   14.2302 C.ar    1  UNL1        0.0644
     26 C          65.3293   90.4733   14.5223 C.ar    1  UNL1        0.0155
     27 C          64.2214   90.3210   13.5227 C.ar    1  UNL1       -0.0029
     28 N          67.5905   91.5394   15.2298 N.pl3   1  UNL1       -0.2187
     29 H          67.9705   90.7442   15.6686 H       1  UNL1        0.1734
     30 S          68.1197   92.9033   15.5608 S.O2    1  UNL1        0.0558
     31 C          68.6489   94.2672   15.8918 C.3     1  UNL1        0.1996
     32 O          66.9528   93.1342   16.4746 O.2     1  UNL1       -0.1544
     33 O          69.2866   92.6724   14.6470 O.2     1  UNL1       -0.1544
@<TRIPOS>BOND
     1    18    19    1
     2    19     1    1
     3     1     2   ar
     4     2    20    1
     5    20    21    1
     6    21    22    1
     7    22    23   ar
     8    23    24   ar
     9    24    25   ar
    10    25    28    1
    11    28    30    1
    12    30    31    1
    13    30    32    2
    14    30    33    2
    15    25    26   ar
    16    26    27   ar
    17     2     3   ar
    18     3     4   ar
    19     4     7    1
    20     7     8    1
    21     8     9    2
    22     9    10    1
    23    10    11    2
    24    11    12    1
    25    12    13    2
    26     4     5   ar
    27     5     6   ar
    28     6    14    1
    29    14    15    1
    30    14    16    1
    31    14    17    1
    32     6     1   ar
    33    27    22   ar
    34    12     7    1
    35    28    29    1
@<TRIPOS>MOLECULE
*****
 33 35 0 0 0
SMALL
GASTEIGER

@<TRIPOS>ATOM
      1 C          63.6990   84.1225   12.9083 C.ar    1  UNL1        0.1306
      2 C          63.5711   85.5506   13.3487 C.ar    1  UNL1        0.0115
      3 C          62.8315   86.5360   12.4931 C.ar    1  UNL1       -0.0048
      4 C          62.2199   86.0933   11.1971 C.ar    1  UNL1       -0.0102
      5 C          62.3478   84.6651   10.7566 C.ar    1  UNL1       -0.0048
      6 C          63.0874   83.6797   11.6122 C.ar    1  UNL1        0.0106
      7 C          61.4803   87.0786   10.3415 C.3     1  UNL1        0.1227
      8 C          60.7646   86.6125    9.1084 C.2     1  UNL1       -0.0115
      9 C          60.0251   87.5979    8.2528 C.2     1  UNL1        0.0141
     10 C          60.0012   89.0494    8.6302 C.2     1  UNL1        0.0883
     11 N          60.7169   89.5155    9.8633 N.am    1  UNL1       -0.1774
     12 C          61.4565   88.5302   10.7189 C.2     1  UNL1        0.2533
     13 O          62.1722   88.9963   11.9520 O.2     1  UNL1       -0.2723
     14 C          63.2152   82.2515   11.1717 C.3     1  UNL1        0.0218
     15 C          64.2508   82.6551   10.1643 C.3     1  UNL1        0.0045
     16 C          62.1797   81.8480   12.1790 C.3     1  UNL1        0.0045
     17 C          63.3432   80.8234   10.7311 C.3     1  UNL1        0.0045
     18 C          63.9837   82.8739   15.1688 C.3     1  UNL1        0.2524
     19 O          64.4385   83.1371   13.7639 O.3     1  UNL1       -0.4721
     20 C          64.1827   85.9934   14.6449 C.3     1  UNL1        0.0341
     21 C          63.4575   86.9713   15.5210 C.3     1  UNL1        0.0311
     22 C          63.8491   88.4193   15.5131 C.ar    1  UNL1       -0.0218
     23 C          63.3092   89.3480   16.5599 C.ar    1  UNL1       -0.0029
     24 C          63.7008   90.7959   16.5520 C.ar    1  UNL1        0.0155
     25 C          64.6324   91.3151   15.4972 C.ar    1  UNL1        0.0644
     26 C          65.1724   90.3864   14.4504 C.ar    1  UNL1        0.0155
     27 C          64.7807   88.9385   14.4583 C.ar    1  UNL1       -0.0029
     28 N          65.0240   92.7631   15.4893 N.pl3   1  UNL1       -0.2187
     29 H          64.3373   93.4594   15.6027 H       1  UNL1        0.1734
     30 S          66.4619   93.1502   15.3086 S.O2    1  UNL1        0.0558
     31 C          67.8998   93.5373   15.1280 C.3     1  UNL1        0.1996
     32 O          66.1550   93.6450   13.9263 O.2     1  UNL1       -0.1544
     33 O          66.7688   92.6554   16.6910 O.2     1  UNL1       -0.1544
@<TRIPOS>BOND
     1    18    19    1
     2    19     1    1
     3     1     2   ar
     4     2    20    1
     5    20    21    1
     6    21    22    1
     7    22    23   ar
     8    23    24   ar
     9    24    25   ar
    10    25    28    1
    11    28    30    1
    12    30    31    1
    13    30    32    2
    14    30    33    2
    15    25    26   ar
    16    26    27   ar
    17     2     3   ar
    18     3     4   ar
    19     4     7    1
    20     7     8    1
    21     8     9    2
    22     9    10    1
    23    10    11    2
    24    11    12    1
    25    12    13    2
    26     4     5   ar
    27     5     6   ar
    28     6    14    1
    29    14    15    1
    30    14    16    1
    31    14    17    1
    32     6     1   ar
    33    27    22   ar
    34    12     7    1
    35    28    29    1
@<TRIPOS>MOLECULE
*****
 33 35 0 0 0
SMALL
GASTEIGER

@<TRIPOS>ATOM
      1 C          63.2397   85.8513   12.7424 C.ar    1  UNL1        0.1306
      2 C          62.9862   87.1582   12.0513 C.ar    1  UNL1        0.0115
      3 C          63.3569   88.4466   12.7240 C.ar    1  UNL1       -0.0048
      4 C          63.9811   88.4282   14.0878 C.ar    1  UNL1       -0.0102
      5 C          64.2346   87.1213   14.7789 C.ar    1  UNL1       -0.0048
      6 C          63.8639   85.8328   14.1063 C.ar    1  UNL1        0.0106
      7 C          64.3518   89.7166   14.7605 C.3     1  UNL1        0.1227
      8 C          65.5898   90.4525   14.3413 C.2     1  UNL1       -0.0115
      9 C          65.9604   91.7409   15.0140 C.2     1  UNL1        0.0141
     10 C          65.0931   92.2935   16.1059 C.2     1  UNL1        0.0883
     11 N          63.8552   91.5576   16.5252 N.am    1  UNL1       -0.1774
     12 C          63.4845   90.2692   15.8525 C.2     1  UNL1        0.2533
     13 O          62.2464   89.5333   16.2718 O.2     1  UNL1       -0.2723
     14 C          64.1174   84.5259   14.7975 C.3     1  UNL1        0.0218
     15 C          65.5372   84.5457   14.3141 C.3     1  UNL1        0.0045
     16 C          62.6976   84.5060   15.2808 C.3     1  UNL1        0.0045
     17 C          64.3709   83.2190   15.4886 C.3     1  UNL1        0.0045
     18 C          63.8742   83.8446   11.2191 C.3     1  UNL1        0.2524
     19 O          62.8690   84.5628   12.0698 O.3     1  UNL1       -0.4721
     20 C          62.3620   87.1767   10.6874 C.3     1  UNL1        0.0341
     21 C          60.8688   87.1889   10.5461 C.3     1  UNL1        0.0311
     22 C          60.2340   87.8298    9.3476 C.ar    1  UNL1       -0.0218
     23 C          59.5823   86.9783    8.2987 C.ar    1  UNL1       -0.0029
     24 C          58.9476   87.6192    7.1003 C.ar    1  UNL1        0.0155
     25 C          58.9646   89.1116    6.9507 C.ar    1  UNL1        0.0644
     26 C          59.6163   89.9631    7.9996 C.ar    1  UNL1        0.0155
     27 C          60.2510   89.3222    9.1980 C.ar    1  UNL1       -0.0029
     28 N          58.3298   89.7525    5.7522 N.pl3   1  UNL1       -0.2187
     29 H          57.5725   89.3130    5.3022 H       1  UNL1        0.1734
     30 S          58.8489   91.0630    5.2394 S.O2    1  UNL1        0.0558
     31 C          59.3680   92.3735    4.7266 C.3     1  UNL1        0.1996
     32 O          60.2371   90.4965    5.1967 O.2     1  UNL1       -0.1544
     33 O          57.4607   91.6296    5.2821 O.2     1  UNL1       -0.1544
@<TRIPOS>BOND
     1    18    19    1
     2    19     1    1
     3     1     2   ar
     4     2    20    1
     5    20    21    1
     6    21    22    1
     7    22    23   ar
     8    23    24   ar
     9    24    25   ar
    10    25    28    1
    11    28    30    1
    12    30    31    1
    13    30    32    2
    14    30    33    2
    15    25    26   ar
    16    26    27   ar
    17     2     3   ar
    18     3     4   ar
    19     4     7    1
    20     7     8    1
    21     8     9    2
    22     9    10    1
    23    10    11    2
    24    11    12    1
    25    12    13    2
    26     4     5   ar
    27     5     6   ar
    28     6    14    1
    29    14    15    1
    30    14    16    1
    31    14    17    1
    32     6     1   ar
    33    27    22   ar
    34    12     7    1
    35    28    29    1
