@<TRIPOS>MOLECULE
*****
 34 37 0 0 0
SMALL
GASTEIGER

@<TRIPOS>ATOM
      1 C          65.1410   91.5751   13.2492 C.ar    1  UNL1        0.0951
      2 C          65.4588   90.5586   14.3056 C.ar    1  UNL1        0.1454
      3 F          66.6968   90.7056   15.1396 F       1  UNL1       -0.2040
      4 C          64.5385   89.3951   14.5277 C.ar    1  UNL1        0.0312
      5 C          63.3005   89.2481   13.6937 C.ar    1  UNL1        0.0204
      6 C          62.9827   90.2646   12.6374 C.ar    1  UNL1        0.0924
      7 C          63.9030   91.4280   12.4152 C.ar    1  UNL1        0.1598
      8 F          63.5852   92.4446   11.3589 F       1  UNL1       -0.2026
      9 O          66.1386   93.8385   14.0439 O.2     1  UNL1       -0.2864
     10 C          66.0613   92.7387   13.0270 C.2     1  UNL1        0.2015
     11 C          66.9041   92.8023   11.7878 C.ar    1  UNL1        0.0612
     12 C          68.0546   91.8985   11.4567 C.ar    1  UNL1        0.1037
     13 N          68.6059   92.3185   10.1264 N.ar    1  UNL1       -0.2269
     14 C          67.7961   93.4818    9.6353 C.ar    1  UNL1        0.1407
     15 N          67.8806   94.3074    8.3859 N.ar    1  UNL1       -0.3367
     16 C          66.9133   95.4320    8.1632 C.ar    1  UNL1        0.0850
     17 C          65.8615   95.7309    9.1901 C.ar    1  UNL1        0.0748
     18 CL         64.8941   96.8556    8.9674 Cl      1  UNL1       -0.0807
     19 C          65.7770   94.9053   10.4395 C.ar    1  UNL1        0.0160
     20 C          66.7443   93.7808   10.6621 C.ar    1  UNL1        0.0394
     21 H          68.5709   94.1112    7.7119 H       1  UNL1        0.1674
     22 N          61.7447   90.1175   11.8033 N.pl3   1  UNL1       -0.2127
     23 H          61.0057   90.7606   11.9015 H       1  UNL1        0.1738
     24 S          61.6325   88.9906   10.8197 S.O2    1  UNL1        0.0759
     25 O          60.5450   88.3748   11.6492 O.2     1  UNL1       -0.1499
     26 O          62.7200   89.6064    9.9902 O.2     1  UNL1       -0.1499
     27 C          61.5204   87.8638    9.8361 C.ar    1  UNL1        0.1547
     28 C          62.5407   86.7642    9.8357 C.ar    1  UNL1        0.0521
     29 C          62.4287   85.6373    8.8521 C.ar    1  UNL1        0.1416
     30 F          63.4490   84.5378    8.8519 F       1  UNL1       -0.2041
     31 C          61.2964   85.6100    7.8687 C.ar    1  UNL1        0.0320
     32 C          60.2761   86.7096    7.8690 C.ar    1  UNL1        0.0333
     33 C          60.3881   87.8365    8.8527 C.ar    1  UNL1        0.1590
     34 F          59.3678   88.9360    8.8529 F       1  UNL1       -0.2027
@<TRIPOS>BOND
     1     9    10    2
     2    10     1    1
     3     1     2   ar
     4     2     3    1
     5     2     4   ar
     6     4     5   ar
     7     5     6   ar
     8     6    22    1
     9    22    24    1
    10    24    25    2
    11    24    26    2
    12    24    27    1
    13    27    28   ar
    14    28    29   ar
    15    29    30    1
    16    29    31   ar
    17    31    32   ar
    18    32    33   ar
    19    33    34    1
    20     6     7   ar
    21     7     8    1
    22    10    11    1
    23    11    12   ar
    24    12    13   ar
    25    13    14   ar
    26    14    15   ar
    27    15    16   ar
    28    16    17   ar
    29    17    18    1
    30    17    19   ar
    31    19    20   ar
    32     7     1   ar
    33    20    11   ar
    34    33    27   ar
    35    20    14    1
    36    22    23    1
    37    15    21    1
@<TRIPOS>MOLECULE
*****
 34 37 0 0 0
SMALL
GASTEIGER

@<TRIPOS>ATOM
      1 C          61.2382   88.4093    9.9683 C.ar    1  UNL1        0.0951
      2 C          60.3369   88.3153    8.7730 C.ar    1  UNL1        0.1454
      3 F          59.3740   89.4249    8.4705 F       1  UNL1       -0.2040
      4 C          60.3986   87.1115    7.8801 C.ar    1  UNL1        0.0312
      5 C          61.3615   86.0019    8.1826 C.ar    1  UNL1        0.0204
      6 C          62.2628   86.0960    9.3780 C.ar    1  UNL1        0.0924
      7 C          62.2011   87.2997   10.2708 C.ar    1  UNL1        0.1598
      8 F          63.1023   87.3938   11.4662 F       1  UNL1       -0.2026
      9 O          59.8749   90.0156   11.4886 O.2     1  UNL1       -0.2864
     10 C          61.1765   89.6131   10.8613 C.2     1  UNL1        0.2015
     11 C          62.4165   90.4143   11.1267 C.ar    1  UNL1        0.0612
     12 C          63.1742   91.2263   10.1185 C.ar    1  UNL1        0.1037
     13 N          64.3425   91.8580   10.8157 N.ar    1  UNL1       -0.2269
     14 C          64.3069   91.4363   12.2548 C.ar    1  UNL1        0.1407
     15 N          65.2045   91.7496   13.4150 N.ar    1  UNL1       -0.3367
     16 C          64.9118   91.1705   14.7674 C.ar    1  UNL1        0.0850
     17 C          63.7215   90.2783   14.9596 C.ar    1  UNL1        0.0748
     18 CL         63.4288   89.6992   16.3121 Cl      1  UNL1       -0.0807
     19 C          62.8238   89.9650   13.7994 C.ar    1  UNL1        0.0160
     20 C          63.1165   90.5441   12.4470 C.ar    1  UNL1        0.0394
     21 H          65.9858   92.3352   13.2888 H       1  UNL1        0.1674
     22 N          63.2257   84.9863    9.6804 N.pl3   1  UNL1       -0.2127
     23 H          63.9908   84.8220    9.0831 H       1  UNL1        0.1738
     24 S          63.0228   84.1270   10.8930 S.O2    1  UNL1        0.0759
     25 O          64.3605   83.4881   10.6641 O.2     1  UNL1       -0.1499
     26 O          61.6851   84.7659   11.1220 O.2     1  UNL1       -0.1499
     27 C          62.8198   83.2677   12.1056 C.ar    1  UNL1        0.1547
     28 C          62.5640   81.7980   11.9491 C.ar    1  UNL1        0.0521
     29 C          62.3610   80.9386   13.1616 C.ar    1  UNL1        0.1416
     30 F          62.1052   79.4689   13.0050 F       1  UNL1       -0.2041
     31 C          62.4139   81.5490   14.5308 C.ar    1  UNL1        0.0320
     32 C          62.6697   83.0188   14.6873 C.ar    1  UNL1        0.0333
     33 C          62.8727   83.8781   13.4748 C.ar    1  UNL1        0.1590
     34 F          63.1285   85.3478   13.6314 F       1  UNL1       -0.2027
@<TRIPOS>BOND
     1     9    10    2
     2    10     1    1
     3     1     2   ar
     4     2     3    1
     5     2     4   ar
     6     4     5   ar
     7     5     6   ar
     8     6    22    1
     9    22    24    1
    10    24    25    2
    11    24    26    2
    12    24    27    1
    13    27    28   ar
    14    28    29   ar
    15    29    30    1
    16    29    31   ar
    17    31    32   ar
    18    32    33   ar
    19    33    34    1
    20     6     7   ar
    21     7     8    1
    22    10    11    1
    23    11    12   ar
    24    12    13   ar
    25    13    14   ar
    26    14    15   ar
    27    15    16   ar
    28    16    17   ar
    29    17    18    1
    30    17    19   ar
    31    19    20   ar
    32     7     1   ar
    33    20    11   ar
    34    33    27   ar
    35    20    14    1
    36    22    23    1
    37    15    21    1
@<TRIPOS>MOLECULE
*****
 34 37 0 0 0
SMALL
GASTEIGER

@<TRIPOS>ATOM
      1 C          64.0023   88.4794   15.3649 C.ar    1  UNL1        0.0951
      2 C          63.1234   89.0296   16.4489 C.ar    1  UNL1        0.1454
      3 F          62.8719   90.5059   16.5335 F       1  UNL1       -0.2040
      4 C          62.4962   88.1033   17.4481 C.ar    1  UNL1        0.0312
      5 C          62.7477   86.6270   17.3635 C.ar    1  UNL1        0.0204
      6 C          63.6266   86.0769   16.2795 C.ar    1  UNL1        0.0924
      7 C          64.2538   87.0031   15.2802 C.ar    1  UNL1        0.1598
      8 F          65.1327   86.4530   14.1962 F       1  UNL1       -0.2026
      9 O          66.0332   89.8926   14.5722 O.2     1  UNL1       -0.2864
     10 C          64.6296   89.4057   14.3655 C.2     1  UNL1        0.2015
     11 C          63.8533   89.8449   13.1595 C.ar    1  UNL1        0.0612
     12 C          63.7037   91.2559   12.6731 C.ar    1  UNL1        0.1037
     13 N          62.8482   91.2332   11.4411 N.ar    1  UNL1       -0.2269
     14 C          62.4691   89.8082   11.1662 C.ar    1  UNL1        0.1407
     15 N          61.6385   89.1810   10.0861 N.ar    1  UNL1       -0.3367
     16 C          61.4291   87.6959   10.0680 C.ar    1  UNL1        0.0850
     17 C          62.0503   86.8378   11.1300 C.ar    1  UNL1        0.0748
     18 CL         61.8408   85.3526   11.1118 Cl      1  UNL1       -0.0807
     19 C          62.8809   87.4650   12.2101 C.ar    1  UNL1        0.0160
     20 C          63.0903   88.9501   12.2283 C.ar    1  UNL1        0.0394
     21 H          61.2308   89.7442    9.3890 H       1  UNL1        0.1674
     22 N          63.8781   84.6005   16.1949 N.pl3   1  UNL1       -0.2127
     23 H          64.1716   84.1046   16.9931 H       1  UNL1        0.1738
     24 S          63.6824   83.8798   14.8940 S.O2    1  UNL1        0.0759
     25 O          65.0379   83.2535   15.0371 O.2     1  UNL1       -0.1499
     26 O          62.3269   84.5060   14.7509 O.2     1  UNL1       -0.1499
     27 C          63.4866   83.1591   13.5932 C.ar    1  UNL1        0.1547
     28 C          64.2800   83.5622   12.3856 C.ar    1  UNL1        0.0521
     29 C          64.0843   82.8415   11.0847 C.ar    1  UNL1        0.1416
     30 F          64.8776   83.2447    9.8773 F       1  UNL1       -0.2041
     31 C          63.0952   81.7177   10.9914 C.ar    1  UNL1        0.0320
     32 C          62.3018   81.3146   12.1989 C.ar    1  UNL1        0.0333
     33 C          62.4975   82.0353   13.4998 C.ar    1  UNL1        0.1590
     34 F          61.7042   81.6321   14.7073 F       1  UNL1       -0.2027
@<TRIPOS>BOND
     1     9    10    2
     2    10     1    1
     3     1     2   ar
     4     2     3    1
     5     2     4   ar
     6     4     5   ar
     7     5     6   ar
     8     6    22    1
     9    22    24    1
    10    24    25    2
    11    24    26    2
    12    24    27    1
    13    27    28   ar
    14    28    29   ar
    15    29    30    1
    16    29    31   ar
    17    31    32   ar
    18    32    33   ar
    19    33    34    1
    20     6     7   ar
    21     7     8    1
    22    10    11    1
    23    11    12   ar
    24    12    13   ar
    25    13    14   ar
    26    14    15   ar
    27    15    16   ar
    28    16    17   ar
    29    17    18    1
    30    17    19   ar
    31    19    20   ar
    32     7     1   ar
    33    20    11   ar
    34    33    27   ar
    35    20    14    1
    36    22    23    1
    37    15    21    1
@<TRIPOS>MOLECULE
*****
 34 37 0 0 0
SMALL
GASTEIGER

@<TRIPOS>ATOM
      1 C          64.0014   84.5358   13.9454 C.ar    1  UNL1        0.0951
      2 C          63.7813   83.1032   14.3318 C.ar    1  UNL1        0.1454
      3 F          64.3155   82.5874   15.6351 F       1  UNL1       -0.2040
      4 C          63.0271   82.1865   13.4149 C.ar    1  UNL1        0.0312
      5 C          62.4930   82.7024   12.1116 C.ar    1  UNL1        0.0204
      6 C          62.7130   84.1349   11.7252 C.ar    1  UNL1        0.0924
      7 C          63.4673   85.0516   12.6421 C.ar    1  UNL1        0.1598
      8 F          63.6874   86.4842   12.2558 F       1  UNL1       -0.2026
      9 O          66.2537   85.3966   14.9128 O.2     1  UNL1       -0.2864
     10 C          64.7557   85.4526   14.8624 C.2     1  UNL1        0.2015
     11 C          64.0118   86.4252   15.7288 C.ar    1  UNL1        0.0612
     12 C          63.1527   86.0772   16.9081 C.ar    1  UNL1        0.1037
     13 N          62.6064   87.3535   17.4762 N.ar    1  UNL1       -0.2269
     14 C          63.1279   88.4902   16.6479 C.ar    1  UNL1        0.1407
     15 N          62.9240   89.9735   16.7376 N.ar    1  UNL1       -0.3367
     16 C          63.5888   90.8831   15.7473 C.ar    1  UNL1        0.0850
     17 C          64.4574   90.3094   14.6673 C.ar    1  UNL1        0.0748
     18 CL         65.1222   91.2190   13.6770 Cl      1  UNL1       -0.0807
     19 C          64.6613   88.8260   14.5776 C.ar    1  UNL1        0.0160
     20 C          63.9965   87.9164   15.5679 C.ar    1  UNL1        0.0394
     21 H          62.3539   90.3501   17.4464 H       1  UNL1        0.1674
     22 N          62.1789   84.6508   10.4219 N.pl3   1  UNL1       -0.2127
     23 H          62.0538   84.0359    9.6632 H       1  UNL1        0.1738
     24 S          61.8353   86.1034   10.2745 S.O2    1  UNL1        0.0759
     25 O          61.0492   86.0470   11.5508 O.2     1  UNL1       -0.1499
     26 O          62.6213   86.1599    8.9982 O.2     1  UNL1       -0.1499
     27 C          61.4917   87.5560   10.1270 C.ar    1  UNL1        0.1547
     28 C          62.3645   88.6009   10.7568 C.ar    1  UNL1        0.0521
     29 C          62.0210   90.0535   10.6094 C.ar    1  UNL1        0.1416
     30 F          62.8939   91.0983   11.2391 F       1  UNL1       -0.2041
     31 C          60.8047   90.4615    9.8322 C.ar    1  UNL1        0.0320
     32 C          59.9318   89.4166    9.2024 C.ar    1  UNL1        0.0333
     33 C          60.2753   87.9640    9.3499 C.ar    1  UNL1        0.1590
     34 F          59.4024   86.9192    8.7201 F       1  UNL1       -0.2027
@<TRIPOS>BOND
     1     9    10    2
     2    10     1    1
     3     1     2   ar
     4     2     3    1
     5     2     4   ar
     6     4     5   ar
     7     5     6   ar
     8     6    22    1
     9    22    24    1
    10    24    25    2
    11    24    26    2
    12    24    27    1
    13    27    28   ar
    14    28    29   ar
    15    29    30    1
    16    29    31   ar
    17    31    32   ar
    18    32    33   ar
    19    33    34    1
    20     6     7   ar
    21     7     8    1
    22    10    11    1
    23    11    12   ar
    24    12    13   ar
    25    13    14   ar
    26    14    15   ar
    27    15    16   ar
    28    16    17   ar
    29    17    18    1
    30    17    19   ar
    31    19    20   ar
    32     7     1   ar
    33    20    11   ar
    34    33    27   ar
    35    20    14    1
    36    22    23    1
    37    15    21    1
@<TRIPOS>MOLECULE
*****
 34 37 0 0 0
SMALL
GASTEIGER

@<TRIPOS>ATOM
      1 C          64.0261   88.5283   15.4946 C.ar    1  UNL1        0.0951
      2 C          63.1872   88.9440   16.6666 C.ar    1  UNL1        0.1454
      3 F          62.9525   90.3996   16.9422 F       1  UNL1       -0.2040
      4 C          62.5831   87.9039   17.5628 C.ar    1  UNL1        0.0312
      5 C          62.8178   86.4483   17.2871 C.ar    1  UNL1        0.0204
      6 C          63.6567   86.0327   16.1151 C.ar    1  UNL1        0.0924
      7 C          64.2609   87.0727   15.2189 C.ar    1  UNL1        0.1598
      8 F          65.0998   86.6572   14.0469 F       1  UNL1       -0.2026
      9 O          65.8463   90.3262   15.0422 O.2     1  UNL1       -0.2864
     10 C          64.6304   89.5684   14.5983 C.2     1  UNL1        0.2015
     11 C          64.0186   89.8506   13.2581 C.ar    1  UNL1        0.0612
     12 C          62.9666   89.0257   12.5778 C.ar    1  UNL1        0.1037
     13 N          62.6492   89.6726   11.2622 N.ar    1  UNL1       -0.2269
     14 C          63.5051   90.8973   11.1294 C.ar    1  UNL1        0.1407
     15 N          63.6231   91.9265   10.0446 N.ar    1  UNL1       -0.3367
     16 C          64.5874   93.0657   10.1934 C.ar    1  UNL1        0.0850
     17 C          65.4338   93.1757   11.4269 C.ar    1  UNL1        0.0748
     18 CL         66.3982   94.3150   11.5756 Cl      1  UNL1       -0.0807
     19 C          65.3157   92.1465   12.5117 C.ar    1  UNL1        0.0160
     20 C          64.3514   91.0073   12.3630 C.ar    1  UNL1        0.0394
     21 H          63.0676   91.8542    9.2350 H       1  UNL1        0.1674
     22 N          63.8914   84.5770   15.8394 N.pl3   1  UNL1       -0.2127
     23 H          64.1557   83.9738   16.5712 H       1  UNL1        0.1738
     24 S          63.7234   84.0405   14.4488 S.O2    1  UNL1        0.0759
     25 O          65.1850   83.7066   14.4010 O.2     1  UNL1       -0.1499
     26 O          62.2618   84.3743   14.4966 O.2     1  UNL1       -0.1499
     27 C          63.5553   83.5040   13.0582 C.ar    1  UNL1        0.1547
     28 C          63.5848   84.4384   11.8851 C.ar    1  UNL1        0.0521
     29 C          63.4167   83.9019   10.4945 C.ar    1  UNL1        0.1416
     30 F          63.4462   84.8364    9.3215 F       1  UNL1       -0.2041
     31 C          63.2191   82.4310   10.2768 C.ar    1  UNL1        0.0320
     32 C          63.1896   81.4966   11.4499 C.ar    1  UNL1        0.0333
     33 C          63.3577   82.0331   12.8405 C.ar    1  UNL1        0.1590
     34 F          63.3282   81.0986   14.0135 F       1  UNL1       -0.2027
@<TRIPOS>BOND
     1     9    10    2
     2    10     1    1
     3     1     2   ar
     4     2     3    1
     5     2     4   ar
     6     4     5   ar
     7     5     6   ar
     8     6    22    1
     9    22    24    1
    10    24    25    2
    11    24    26    2
    12    24    27    1
    13    27    28   ar
    14    28    29   ar
    15    29    30    1
    16    29    31   ar
    17    31    32   ar
    18    32    33   ar
    19    33    34    1
    20     6     7   ar
    21     7     8    1
    22    10    11    1
    23    11    12   ar
    24    12    13   ar
    25    13    14   ar
    26    14    15   ar
    27    15    16   ar
    28    16    17   ar
    29    17    18    1
    30    17    19   ar
    31    19    20   ar
    32     7     1   ar
    33    20    11   ar
    34    33    27   ar
    35    20    14    1
    36    22    23    1
    37    15    21    1
@<TRIPOS>MOLECULE
*****
 34 37 0 0 0
SMALL
GASTEIGER

@<TRIPOS>ATOM
      1 C          64.0234   88.4915   15.5127 C.ar    1  UNL1        0.0951
      2 C          63.1416   88.9442   16.6385 C.ar    1  UNL1        0.1454
      3 F          62.8797   90.4067   16.8446 F       1  UNL1       -0.2040
      4 C          62.5216   87.9343   17.5581 C.ar    1  UNL1        0.0312
      5 C          62.7835   86.4718   17.3519 C.ar    1  UNL1        0.0204
      6 C          63.6653   86.0192   16.2261 C.ar    1  UNL1        0.0924
      7 C          64.2852   87.0290   15.3065 C.ar    1  UNL1        0.1598
      8 F          65.1671   86.5765   14.1806 F       1  UNL1       -0.2026
      9 O          65.8882   90.2285   15.0073 O.2     1  UNL1       -0.2864
     10 C          64.6434   89.5015   14.5929 C.2     1  UNL1        0.2015
     11 C          64.0185   89.7842   13.2589 C.ar    1  UNL1        0.0612
     12 C          62.9684   88.9531   12.5833 C.ar    1  UNL1        0.1037
     13 N          62.6350   89.6030   11.2732 N.ar    1  UNL1       -0.2269
     14 C          63.4790   90.8358   11.1391 C.ar    1  UNL1        0.1407
     15 N          63.5793   91.8708   10.0581 N.ar    1  UNL1       -0.3367
     16 C          64.5348   93.0179   10.2044 C.ar    1  UNL1        0.0850
     17 C          65.3898   93.1299   11.4317 C.ar    1  UNL1        0.0748
     18 CL         66.3453   94.2769   11.5780 Cl      1  UNL1       -0.0807
     19 C          65.2895   92.0948   12.5127 C.ar    1  UNL1        0.0160
     20 C          64.3341   90.9478   12.3664 C.ar    1  UNL1        0.0394
     21 H          63.0181   91.7973    9.2526 H       1  UNL1        0.1674
     22 N          63.9271   84.5567   16.0200 N.pl3   1  UNL1       -0.2127
     23 H          64.2731   84.0092   16.7615 H       1  UNL1        0.1738
     24 S          63.6618   83.9283   14.6840 S.O2    1  UNL1        0.0759
     25 O          62.1917   84.1652   14.8645 O.2     1  UNL1       -0.1499
     26 O          65.1320   83.6914   14.5035 O.2     1  UNL1       -0.1499
     27 C          63.3967   83.2999   13.3481 C.ar    1  UNL1        0.1547
     28 C          63.2292   81.8133   13.2385 C.ar    1  UNL1        0.0521
     29 C          62.9640   81.1848   11.9026 C.ar    1  UNL1        0.1416
     30 F          62.7966   79.6982   11.7930 F       1  UNL1       -0.2041
     31 C          62.8663   82.0429   10.6762 C.ar    1  UNL1        0.0320
     32 C          63.0337   83.5295   10.7858 C.ar    1  UNL1        0.0333
     33 C          63.2989   84.1580   12.1217 C.ar    1  UNL1        0.1590
     34 F          63.4663   85.6446   12.2312 F       1  UNL1       -0.2027
@<TRIPOS>BOND
     1     9    10    2
     2    10     1    1
     3     1     2   ar
     4     2     3    1
     5     2     4   ar
     6     4     5   ar
     7     5     6   ar
     8     6    22    1
     9    22    24    1
    10    24    25    2
    11    24    26    2
    12    24    27    1
    13    27    28   ar
    14    28    29   ar
    15    29    30    1
    16    29    31   ar
    17    31    32   ar
    18    32    33   ar
    19    33    34    1
    20     6     7   ar
    21     7     8    1
    22    10    11    1
    23    11    12   ar
    24    12    13   ar
    25    13    14   ar
    26    14    15   ar
    27    15    16   ar
    28    16    17   ar
    29    17    18    1
    30    17    19   ar
    31    19    20   ar
    32     7     1   ar
    33    20    11   ar
    34    33    27   ar
    35    20    14    1
    36    22    23    1
    37    15    21    1
@<TRIPOS>MOLECULE
*****
 34 37 0 0 0
SMALL
GASTEIGER

@<TRIPOS>ATOM
      1 C          63.7909   88.4919   15.2196 C.ar    1  UNL1        0.0951
      2 C          63.0994   88.9333   16.4754 C.ar    1  UNL1        0.1454
      3 F          62.7343   90.3760   16.6632 F       1  UNL1       -0.2040
      4 C          62.7731   87.9319   17.5434 C.ar    1  UNL1        0.0312
      5 C          63.1383   86.4892   17.3557 C.ar    1  UNL1        0.0204
      6 C          63.8297   86.0478   16.0998 C.ar    1  UNL1        0.0924
      7 C          64.1560   87.0492   15.0318 C.ar    1  UNL1        0.1598
      8 F          64.8475   86.6080   13.7759 F       1  UNL1       -0.2026
      9 O          63.6314   89.2787   12.7487 O.2     1  UNL1       -0.2864
     10 C          64.1172   89.4934   14.1514 C.2     1  UNL1        0.2015
     11 C          64.9292   90.7093   14.4862 C.ar    1  UNL1        0.0612
     12 C          65.4913   91.0503   15.8344 C.ar    1  UNL1        0.1037
     13 N          66.2312   92.3495   15.7130 N.ar    1  UNL1       -0.2269
     14 C          66.1263   92.8114   14.2897 C.ar    1  UNL1        0.1407
     15 N          66.6596   94.0241   13.5862 N.ar    1  UNL1       -0.3367
     16 C          66.3882   94.2231   12.1245 C.ar    1  UNL1        0.0850
     17 C          65.5835   93.2093   11.3663 C.ar    1  UNL1        0.0748
     18 CL         65.3120   93.4084    9.9045 Cl      1  UNL1       -0.0807
     19 C          65.0502   91.9967   12.0698 C.ar    1  UNL1        0.0160
     20 C          65.3216   91.7977   13.5315 C.ar    1  UNL1        0.0394
     21 H          67.1877   94.6894   14.0838 H       1  UNL1        0.1674
     22 N          64.1949   84.6051   15.9121 N.pl3   1  UNL1       -0.2127
     23 H          64.6161   84.1042   16.6475 H       1  UNL1        0.1738
     24 S          63.9183   83.9256   14.6038 S.O2    1  UNL1        0.0759
     25 O          65.3925   83.8013   14.3566 O.2     1  UNL1       -0.1499
     26 O          62.4440   84.0500   14.8509 O.2     1  UNL1       -0.1499
     27 C          63.6415   83.2461   13.2955 C.ar    1  UNL1        0.1547
     28 C          63.9357   83.9537   12.0059 C.ar    1  UNL1        0.0521
     29 C          63.6590   83.2742   10.6975 C.ar    1  UNL1        0.1416
     30 F          63.9531   83.9818    9.4080 F       1  UNL1       -0.2041
     31 C          63.0881   81.8873   10.6787 C.ar    1  UNL1        0.0320
     32 C          62.7940   81.1797   11.9683 C.ar    1  UNL1        0.0333
     33 C          63.0707   81.8592   13.2766 C.ar    1  UNL1        0.1590
     34 F          62.7765   81.1516   14.5661 F       1  UNL1       -0.2027
@<TRIPOS>BOND
     1     9    10    2
     2    10     1    1
     3     1     2   ar
     4     2     3    1
     5     2     4   ar
     6     4     5   ar
     7     5     6   ar
     8     6    22    1
     9    22    24    1
    10    24    25    2
    11    24    26    2
    12    24    27    1
    13    27    28   ar
    14    28    29   ar
    15    29    30    1
    16    29    31   ar
    17    31    32   ar
    18    32    33   ar
    19    33    34    1
    20     6     7   ar
    21     7     8    1
    22    10    11    1
    23    11    12   ar
    24    12    13   ar
    25    13    14   ar
    26    14    15   ar
    27    15    16   ar
    28    16    17   ar
    29    17    18    1
    30    17    19   ar
    31    19    20   ar
    32     7     1   ar
    33    20    11   ar
    34    33    27   ar
    35    20    14    1
    36    22    23    1
    37    15    21    1
@<TRIPOS>MOLECULE
*****
 34 37 0 0 0
SMALL
GASTEIGER

@<TRIPOS>ATOM
      1 C          61.9992   86.6165   10.8284 C.ar    1  UNL1        0.0951
      2 C          60.8953   86.7128    9.8174 C.ar    1  UNL1        0.1454
      3 F          60.5286   85.5159    8.9911 F       1  UNL1       -0.2040
      4 C          60.1582   88.0060    9.6328 C.ar    1  UNL1        0.0312
      5 C          60.5249   89.2030   10.4591 C.ar    1  UNL1        0.0204
      6 C          61.6289   89.1067   11.4701 C.ar    1  UNL1        0.0924
      7 C          62.3660   87.8135   11.6547 C.ar    1  UNL1        0.1598
      8 F          63.4700   87.7171   12.6657 F       1  UNL1       -0.2026
      9 O          63.5291   84.7434    9.8793 O.2     1  UNL1       -0.2864
     10 C          62.7365   85.3232   11.0130 C.2     1  UNL1        0.2015
     11 C          62.6810   84.6099   12.3314 C.ar    1  UNL1        0.0612
     12 C          62.6106   85.2581   13.6823 C.ar    1  UNL1        0.1037
     13 N          62.5722   84.1720   14.7161 N.ar    1  UNL1       -0.2269
     14 C          62.6189   82.8525   14.0042 C.ar    1  UNL1        0.1407
     15 N          62.6089   81.4395   14.5075 N.ar    1  UNL1       -0.3367
     16 C          62.6661   80.2973   13.5370 C.ar    1  UNL1        0.0850
     17 C          62.7333   80.5679   12.0632 C.ar    1  UNL1        0.0748
     18 CL         62.7905   79.4256   11.0927 Cl      1  UNL1       -0.0807
     19 C          62.7433   81.9809   11.5598 C.ar    1  UNL1        0.0160
     20 C          62.6861   83.1232   12.5303 C.ar    1  UNL1        0.0394
     21 H          62.5648   81.2619   15.4748 H       1  UNL1        0.1674
     22 N          61.9956   90.3037   12.2964 N.pl3   1  UNL1       -0.2127
     23 H          61.3629   90.6529   12.9650 H       1  UNL1        0.1738
     24 S          63.3264   90.9685   12.1042 S.O2    1  UNL1        0.0759
     25 O          63.2684   90.6604   10.6373 O.2     1  UNL1       -0.1499
     26 O          63.3844   91.2766   13.5710 O.2     1  UNL1       -0.1499
     27 C          64.6571   91.6334   11.9120 C.ar    1  UNL1        0.1547
     28 C          64.9126   92.4600   10.6866 C.ar    1  UNL1        0.0521
     29 C          66.2433   93.1249   10.4943 C.ar    1  UNL1        0.1416
     30 F          66.4986   93.9515    9.2690 F       1  UNL1       -0.2041
     31 C          67.3187   92.9632   11.5274 C.ar    1  UNL1        0.0320
     32 C          67.0633   92.1366   12.7528 C.ar    1  UNL1        0.0333
     33 C          65.7326   91.4716   12.9451 C.ar    1  UNL1        0.1590
     34 F          65.4772   90.6450   14.1704 F       1  UNL1       -0.2027
@<TRIPOS>BOND
     1     9    10    2
     2    10     1    1
     3     1     2   ar
     4     2     3    1
     5     2     4   ar
     6     4     5   ar
     7     5     6   ar
     8     6    22    1
     9    22    24    1
    10    24    25    2
    11    24    26    2
    12    24    27    1
    13    27    28   ar
    14    28    29   ar
    15    29    30    1
    16    29    31   ar
    17    31    32   ar
    18    32    33   ar
    19    33    34    1
    20     6     7   ar
    21     7     8    1
    22    10    11    1
    23    11    12   ar
    24    12    13   ar
    25    13    14   ar
    26    14    15   ar
    27    15    16   ar
    28    16    17   ar
    29    17    18    1
    30    17    19   ar
    31    19    20   ar
    32     7     1   ar
    33    20    11   ar
    34    33    27   ar
    35    20    14    1
    36    22    23    1
    37    15    21    1
@<TRIPOS>MOLECULE
*****
 34 37 0 0 0
SMALL
GASTEIGER

@<TRIPOS>ATOM
      1 C          63.8405   89.2169   15.6451 C.ar    1  UNL1        0.0951
      2 C          63.4333   88.5511   16.9261 C.ar    1  UNL1        0.1454
      3 F          63.2576   89.3670   18.1725 F       1  UNL1       -0.2040
      4 C          63.2017   87.0696   16.9606 C.ar    1  UNL1        0.0312
      5 C          63.3774   86.2537   15.7143 C.ar    1  UNL1        0.0204
      6 C          63.7846   86.9194   14.4332 C.ar    1  UNL1        0.0924
      7 C          64.0162   88.4010   14.3987 C.ar    1  UNL1        0.1598
      8 F          64.4234   89.0668   13.1177 F       1  UNL1       -0.2026
      9 O          63.1324   91.6214   16.3281 O.2     1  UNL1       -0.2864
     10 C          64.0721   90.6986   15.6105 C.2     1  UNL1        0.2015
     11 C          65.2435   91.2572   14.8582 C.ar    1  UNL1        0.0612
     12 C          66.6000   91.5482   15.4284 C.ar    1  UNL1        0.1037
     13 N          67.4588   92.0937   14.3262 N.ar    1  UNL1       -0.2269
     14 C          66.6330   92.1399   13.0748 C.ar    1  UNL1        0.1407
     15 N          66.9510   92.5859   11.6784 N.ar    1  UNL1       -0.3367
     16 C          65.8998   92.5149   10.6108 C.ar    1  UNL1        0.0850
     17 C          64.5306   91.9978   10.9396 C.ar    1  UNL1        0.0748
     18 CL         63.4794   91.9268    9.8719 Cl      1  UNL1       -0.0807
     19 C          64.2127   91.5518   12.3360 C.ar    1  UNL1        0.0160
     20 C          65.2639   91.6229   13.4036 C.ar    1  UNL1        0.0394
     21 H          67.8496   92.9252   11.4626 H       1  UNL1        0.1674
     22 N          63.9603   86.1035   13.1869 N.pl3   1  UNL1       -0.2127
     23 H          64.3751   86.5056   12.3897 H       1  UNL1        0.1738
     24 S          63.5038   84.6750   13.1551 S.O2    1  UNL1        0.0759
     25 O          62.1521   85.1175   12.6786 O.2     1  UNL1       -0.1499
     26 O          64.8555   84.2325   13.6316 O.2     1  UNL1       -0.1499
     27 C          63.0475   83.2465   13.1233 C.ar    1  UNL1        0.1547
     28 C          63.2095   82.4350   11.8721 C.ar    1  UNL1        0.0521
     29 C          62.7532   81.0065   11.8403 C.ar    1  UNL1        0.1416
     30 F          62.9153   80.1951   10.5891 F       1  UNL1       -0.2041
     31 C          62.1348   80.3894   13.0596 C.ar    1  UNL1        0.0320
     32 C          61.9728   81.2008   14.3107 C.ar    1  UNL1        0.0333
     33 C          62.4291   82.6294   14.3426 C.ar    1  UNL1        0.1590
     34 F          62.2670   83.4407   15.5937 F       1  UNL1       -0.2027
@<TRIPOS>BOND
     1     9    10    2
     2    10     1    1
     3     1     2   ar
     4     2     3    1
     5     2     4   ar
     6     4     5   ar
     7     5     6   ar
     8     6    22    1
     9    22    24    1
    10    24    25    2
    11    24    26    2
    12    24    27    1
    13    27    28   ar
    14    28    29   ar
    15    29    30    1
    16    29    31   ar
    17    31    32   ar
    18    32    33   ar
    19    33    34    1
    20     6     7   ar
    21     7     8    1
    22    10    11    1
    23    11    12   ar
    24    12    13   ar
    25    13    14   ar
    26    14    15   ar
    27    15    16   ar
    28    16    17   ar
    29    17    18    1
    30    17    19   ar
    31    19    20   ar
    32     7     1   ar
    33    20    11   ar
    34    33    27   ar
    35    20    14    1
    36    22    23    1
    37    15    21    1
