@<TRIPOS>MOLECULE
*****
 33 36 0 0 0
SMALL
GASTEIGER

@<TRIPOS>ATOM
      1 C          63.5421   90.7698    9.8980 C.3     1  UNL1        0.0285
      2 C          62.9089   90.2319   11.1469 C.2     1  UNL1       -0.0155
      3 C          61.8308   89.1910   11.2109 C.2     1  UNL1       -0.0059
      4 C          61.4982   88.9564   12.6547 C.2     1  UNL1        0.0895
      5 N          62.3708   89.8523   13.4829 N.2     1  UNL1       -0.2578
      6 C          63.2426   90.6406   12.5510 C.3     1  UNL1        0.1970
      7 C          64.2682   91.6589   12.9528 C.2     1  UNL1        0.2490
      8 O          64.5327   91.9242   14.4052 O.2     1  UNL1       -0.2726
      9 N          65.0292   92.4117   11.9020 N.am    1  UNL1       -0.2977
     10 H          64.8555   92.2376   10.9488 H       1  UNL1        0.1498
     11 C          66.0548   93.4300   12.3038 C.3     1  UNL1        0.1300
     12 C          66.2472   94.6670   11.4773 C.3     1  UNL1        0.0295
     13 C          66.8878   93.2113   13.5319 C.ar    1  UNL1        0.1524
     14 N          68.1025   92.3368   13.6290 N.ar    1  UNL1       -0.2065
     15 C          68.6177   92.4138   15.0357 C.ar    1  UNL1        0.2204
     16 N          67.7214   93.3359   15.8079 N.ar    1  UNL1       -0.1489
     17 N          66.6522   93.8289   14.8785 N.ar    1  UNL1       -0.2602
     18 H          65.9237   94.4489   15.1113 H       1  UNL1        0.1903
     19 C          61.1965   88.5051   10.0373 C.3     1  UNL1        0.0387
     20 C          60.3545   89.6262    9.5042 C.3     1  UNL1        0.0088
     21 C          60.3464   88.2912    8.8201 C.3     1  UNL1        0.0088
     22 C          61.8183   87.1458   10.1630 C.ar    1  UNL1       -0.0183
     23 C          62.3076   86.4289    8.9396 C.ar    1  UNL1       -0.0040
     24 C          62.9293   85.0697    9.0653 C.ar    1  UNL1        0.0042
     25 C          63.0618   84.4273   10.4143 C.ar    1  UNL1        0.0810
     26 C          62.5725   85.1442   11.6376 C.ar    1  UNL1        0.0720
     27 C          61.9508   86.5035   11.5120 C.ar    1  UNL1        0.0063
     28 C          63.6836   83.0680   10.5399 C.3     1  UNL1        0.4192
     29 F          64.3053   81.7087   10.6656 F       1  UNL1       -0.1658
     30 F          65.0131   83.6396   10.1454 F       1  UNL1       -0.1658
     31 F          62.3541   82.4964   10.9344 F       1  UNL1       -0.1658
     32 C          62.7050   84.5019   12.9867 C.1     1  UNL1        0.1004
     33 N          62.8375   83.8595   14.3357 N.1     1  UNL1       -0.1908
@<TRIPOS>BOND
     1     1     2    1
     2     2     3    2
     3     3    19    1
     4    19    22    1
     5    22    23   ar
     6    23    24   ar
     7    24    25   ar
     8    25    28    1
     9    28    29    1
    10    28    30    1
    11    28    31    1
    12    25    26   ar
    13    26    32    1
    14    32    33    3
    15    26    27   ar
    16    19    20    1
    17    20    21    1
    18     3     4    1
    19     4     5    2
    20     5     6    1
    21     6     7    1
    22     7     8    2
    23     7     9   am
    24     9    11    1
    25    11    12    1
    26    11    13    1
    27    13    14   ar
    28    14    15   ar
    29    15    16   ar
    30    16    17   ar
    31     6     2    1
    32    17    13   ar
    33    21    19    1
    34    27    22   ar
    35     9    10    1
    36    17    18    1
@<TRIPOS>MOLECULE
*****
 33 36 0 0 0
SMALL
GASTEIGER

@<TRIPOS>ATOM
      1 C          63.1324   91.1182    9.7780 C.3     1  UNL1        0.0285
      2 C          63.2020   90.8103   11.2444 C.2     1  UNL1       -0.0155
      3 C          62.2274   89.9712   12.0163 C.2     1  UNL1       -0.0059
      4 C          62.6815   89.9299   13.4454 C.2     1  UNL1        0.0895
      5 N          63.9368   90.7435   13.5566 N.2     1  UNL1       -0.2578
      6 C          64.2585   91.2876   12.1963 C.3     1  UNL1        0.1970
      7 C          65.4308   92.1565   11.8489 C.2     1  UNL1        0.2490
      8 O          66.0860   92.9911   12.9091 O.2     1  UNL1       -0.2726
      9 N          65.9478   92.1908   10.4412 N.am    1  UNL1       -0.2977
     10 H          65.5178   91.6429    9.7454 H       1  UNL1        0.1498
     11 C          67.1202   93.0597   10.0938 C.3     1  UNL1        0.1300
     12 C          68.4485   92.4370    9.7809 C.3     1  UNL1        0.0295
     13 C          66.9641   94.5512   10.0593 C.ar    1  UNL1        0.1524
     14 N          67.2261   95.4379    8.8782 N.ar    1  UNL1       -0.2065
     15 C          66.9426   96.8525    9.2888 C.ar    1  UNL1        0.2204
     16 N          66.5053   96.8399   10.7237 N.ar    1  UNL1       -0.1489
     17 N          66.5186   95.4176   11.1999 N.ar    1  UNL1       -0.2602
     18 H          66.2773   95.1072   12.1025 H       1  UNL1        0.1903
     19 C          61.0120   89.2925   11.4575 C.3     1  UNL1        0.0387
     20 C          60.0159   90.4084   11.5694 C.3     1  UNL1        0.0088
     21 C          59.5973   89.0831   11.0050 C.3     1  UNL1        0.0088
     22 C          61.5862   87.9409   11.1516 C.ar    1  UNL1       -0.0183
     23 C          61.4912   87.3826    9.7626 C.ar    1  UNL1       -0.0040
     24 C          62.0653   86.0310    9.4567 C.ar    1  UNL1        0.0042
     25 C          62.7344   85.2377   10.5398 C.ar    1  UNL1        0.0810
     26 C          62.8293   85.7960   11.9287 C.ar    1  UNL1        0.0720
     27 C          62.2552   87.1476   12.2346 C.ar    1  UNL1        0.0063
     28 C          63.3085   83.8861   10.2338 C.3     1  UNL1        0.4192
     29 F          63.8825   82.5345    9.9279 F       1  UNL1       -0.1658
     30 F          64.1469   84.4885    9.1456 F       1  UNL1       -0.1658
     31 F          62.4701   83.2837   11.3220 F       1  UNL1       -0.1658
     32 C          63.4984   85.0027   13.0118 C.1     1  UNL1        0.1004
     33 N          64.1675   84.2094   14.0949 N.1     1  UNL1       -0.1908
@<TRIPOS>BOND
     1     1     2    1
     2     2     3    2
     3     3    19    1
     4    19    22    1
     5    22    23   ar
     6    23    24   ar
     7    24    25   ar
     8    25    28    1
     9    28    29    1
    10    28    30    1
    11    28    31    1
    12    25    26   ar
    13    26    32    1
    14    32    33    3
    15    26    27   ar
    16    19    20    1
    17    20    21    1
    18     3     4    1
    19     4     5    2
    20     5     6    1
    21     6     7    1
    22     7     8    2
    23     7     9   am
    24     9    11    1
    25    11    12    1
    26    11    13    1
    27    13    14   ar
    28    14    15   ar
    29    15    16   ar
    30    16    17   ar
    31     6     2    1
    32    17    13   ar
    33    21    19    1
    34    27    22   ar
    35     9    10    1
    36    17    18    1
@<TRIPOS>MOLECULE
*****
 33 36 0 0 0
SMALL
GASTEIGER

@<TRIPOS>ATOM
      1 C          63.1353   91.2232    9.7432 C.3     1  UNL1        0.0285
      2 C          63.2494   90.8723   11.1972 C.2     1  UNL1       -0.0155
      3 C          62.3016   90.0056   11.9719 C.2     1  UNL1       -0.0059
      4 C          62.7978   89.9242   13.3852 C.2     1  UNL1        0.0895
      5 N          64.0523   90.7406   13.4837 N.2     1  UNL1       -0.2578
      6 C          64.3314   91.3266   12.1314 C.3     1  UNL1        0.1970
      7 C          65.4893   92.2114   11.7758 C.2     1  UNL1        0.2490
      8 O          66.0681   93.1382   12.8034 O.2     1  UNL1       -0.2726
      9 N          66.0682   92.1694   10.3927 N.am    1  UNL1       -0.2977
     10 H          65.6882   91.5611    9.7183 H       1  UNL1        0.1498
     11 C          67.2260   93.0543   10.0371 C.3     1  UNL1        0.1300
     12 C          68.5742   92.4537    9.7691 C.3     1  UNL1        0.0295
     13 C          67.0357   94.5396    9.9496 C.ar    1  UNL1        0.1524
     14 N          67.0874   95.3628    8.6968 N.ar    1  UNL1       -0.2065
     15 C          66.8439   96.7944    9.0725 C.ar    1  UNL1        0.2204
     16 N          66.6416   96.8559   10.5576 N.ar    1  UNL1       -0.1489
     17 N          66.7601   95.4624   11.0997 N.ar    1  UNL1       -0.2602
     18 H          66.6725   95.1995   12.0444 H       1  UNL1        0.1903
     19 C          61.0732   89.3376   11.4290 C.3     1  UNL1        0.0387
     20 C          60.0884   90.4621   11.5538 C.3     1  UNL1        0.0088
     21 C          59.6509   89.1406   10.9949 C.3     1  UNL1        0.0088
     22 C          61.6315   87.9810   11.1157 C.ar    1  UNL1       -0.0183
     23 C          62.3246   87.1899   12.1852 C.ar    1  UNL1       -0.0040
     24 C          62.8828   85.8334   11.8719 C.ar    1  UNL1        0.0042
     25 C          62.7479   85.2680   10.4891 C.ar    1  UNL1        0.0810
     26 C          62.0548   86.0590    9.4196 C.ar    1  UNL1        0.0720
     27 C          61.4966   87.4155    9.7330 C.ar    1  UNL1        0.0063
     28 C          63.3062   83.9114   10.1758 C.3     1  UNL1        0.4192
     29 F          63.8645   82.5549    9.8625 F       1  UNL1       -0.1658
     30 F          62.5059   83.3225   11.2995 F       1  UNL1       -0.1658
     31 F          64.1065   84.5003    9.0522 F       1  UNL1       -0.1658
     32 C          61.9200   85.4936    8.0369 C.1     1  UNL1        0.1004
     33 N          61.7851   84.9281    6.6541 N.1     1  UNL1       -0.1908
@<TRIPOS>BOND
     1     1     2    1
     2     2     3    2
     3     3    19    1
     4    19    22    1
     5    22    23   ar
     6    23    24   ar
     7    24    25   ar
     8    25    28    1
     9    28    29    1
    10    28    30    1
    11    28    31    1
    12    25    26   ar
    13    26    32    1
    14    32    33    3
    15    26    27   ar
    16    19    20    1
    17    20    21    1
    18     3     4    1
    19     4     5    2
    20     5     6    1
    21     6     7    1
    22     7     8    2
    23     7     9   am
    24     9    11    1
    25    11    12    1
    26    11    13    1
    27    13    14   ar
    28    14    15   ar
    29    15    16   ar
    30    16    17   ar
    31     6     2    1
    32    17    13   ar
    33    21    19    1
    34    27    22   ar
    35     9    10    1
    36    17    18    1
@<TRIPOS>MOLECULE
*****
 33 36 0 0 0
SMALL
GASTEIGER

@<TRIPOS>ATOM
      1 C          63.4488   89.1109    9.8955 C.3     1  UNL1        0.0285
      2 C          62.2406   89.2055   10.7796 C.2     1  UNL1       -0.0155
      3 C          60.9362   88.4957   10.5688 C.2     1  UNL1       -0.0059
      4 C          60.0143   88.8780   11.6886 C.2     1  UNL1        0.0895
      5 N          60.7490   89.8241   12.5914 N.2     1  UNL1       -0.2578
      6 C          62.1250   90.0265   12.0296 C.3     1  UNL1        0.1970
      7 C          63.1972   90.8970   12.6151 C.2     1  UNL1        0.2490
      8 O          63.2288   91.1570   14.0920 O.2     1  UNL1       -0.2726
      9 N          64.2375   91.5074   11.7235 N.am    1  UNL1       -0.2977
     10 H          64.2167   91.3367   10.7541 H       1  UNL1        0.1498
     11 C          65.3097   92.3780   12.3090 C.3     1  UNL1        0.1300
     12 C          65.8360   92.0966   13.6852 C.3     1  UNL1        0.0295
     13 C          65.8555   93.5299   11.5182 C.ar    1  UNL1        0.1524
     14 N          66.3217   93.4789   10.0934 N.ar    1  UNL1       -0.2065
     15 C          66.7852   94.8525    9.7081 C.ar    1  UNL1        0.2204
     16 N          66.6055   95.7523   10.8948 N.ar    1  UNL1       -0.1489
     17 N          66.0309   94.9348   12.0135 N.ar    1  UNL1       -0.2602
     18 H          65.8080   95.2628   12.9146 H       1  UNL1        0.1903
     19 C          60.6106   87.5667    9.4370 C.3     1  UNL1        0.0387
     20 C          59.6338   88.4142    8.6771 C.3     1  UNL1        0.0088
     21 C          59.9851   87.0440    8.1778 C.3     1  UNL1        0.0088
     22 C          61.4744   86.3965    9.8040 C.ar    1  UNL1       -0.0183
     23 C          62.2889   85.7060    8.7505 C.ar    1  UNL1       -0.0040
     24 C          63.1526   84.5358    9.1175 C.ar    1  UNL1        0.0042
     25 C          63.2020   84.0563   10.5379 C.ar    1  UNL1        0.0810
     26 C          62.3875   84.7469   11.5914 C.ar    1  UNL1        0.0720
     27 C          61.5238   85.9170   11.2244 C.ar    1  UNL1        0.0063
     28 C          64.0658   82.8861   10.9049 C.3     1  UNL1        0.4192
     29 F          64.9295   81.7160   11.2718 F       1  UNL1       -0.1658
     30 F          65.2274   83.8107   11.1188 F       1  UNL1       -0.1658
     31 F          62.9042   81.9616   10.6909 F       1  UNL1       -0.1658
     32 C          62.4369   84.2673   13.0118 C.1     1  UNL1        0.1004
     33 N          62.4862   83.7878   14.4322 N.1     1  UNL1       -0.1908
@<TRIPOS>BOND
     1     1     2    1
     2     2     3    2
     3     3    19    1
     4    19    22    1
     5    22    23   ar
     6    23    24   ar
     7    24    25   ar
     8    25    28    1
     9    28    29    1
    10    28    30    1
    11    28    31    1
    12    25    26   ar
    13    26    32    1
    14    32    33    3
    15    26    27   ar
    16    19    20    1
    17    20    21    1
    18     3     4    1
    19     4     5    2
    20     5     6    1
    21     6     7    1
    22     7     8    2
    23     7     9   am
    24     9    11    1
    25    11    12    1
    26    11    13    1
    27    13    14   ar
    28    14    15   ar
    29    15    16   ar
    30    16    17   ar
    31     6     2    1
    32    17    13   ar
    33    21    19    1
    34    27    22   ar
    35     9    10    1
    36    17    18    1
@<TRIPOS>MOLECULE
*****
 33 36 0 0 0
SMALL
GASTEIGER

@<TRIPOS>ATOM
      1 C          63.3883   89.1770   10.1550 C.3     1  UNL1        0.0285
      2 C          62.1211   89.1792   10.9578 C.2     1  UNL1       -0.0155
      3 C          60.8619   88.4378   10.6196 C.2     1  UNL1       -0.0059
      4 C          59.8534   88.7237   11.6926 C.2     1  UNL1        0.0895
      5 N          60.4894   89.6418   12.6938 N.2     1  UNL1       -0.2578
      6 C          61.8910   89.9233   12.2398 C.3     1  UNL1        0.1970
      7 C          62.8875   90.7958   12.9440 C.2     1  UNL1        0.2490
      8 O          63.4317   92.0151   12.2606 O.2     1  UNL1       -0.2726
      9 N          63.3396   90.4489   14.3315 N.am    1  UNL1       -0.2977
     10 H          62.9823   89.6486   14.7799 H       1  UNL1        0.1498
     11 C          64.3361   91.3213   15.0357 C.3     1  UNL1        0.1300
     12 C          64.0593   91.8020   16.4294 C.3     1  UNL1        0.0295
     13 C          65.6094   91.7131   14.3461 C.ar    1  UNL1        0.1524
     14 N          66.9204   90.9903   14.4385 N.ar    1  UNL1       -0.2065
     15 C          67.9163   91.7269   13.5927 C.ar    1  UNL1        0.2204
     16 N          67.2208   92.9050   12.9775 N.ar    1  UNL1       -0.1489
     17 N          65.7949   92.8964   13.4432 N.ar    1  UNL1       -0.2602
     18 H          65.1025   93.5523   13.1991 H       1  UNL1        0.1903
     19 C          60.6485   87.5640    9.4193 C.3     1  UNL1        0.0387
     20 C          59.6964   88.4211    8.6390 C.3     1  UNL1        0.0088
     21 C          60.1301   87.0931    8.0928 C.3     1  UNL1        0.0088
     22 C          61.5265   86.4033    9.7828 C.ar    1  UNL1       -0.0183
     23 C          62.3954   85.7648    8.7402 C.ar    1  UNL1       -0.0040
     24 C          63.2734   84.6042    9.1037 C.ar    1  UNL1        0.0042
     25 C          63.2824   84.0821   10.5099 C.ar    1  UNL1        0.0810
     26 C          62.4134   84.7206   11.5525 C.ar    1  UNL1        0.0720
     27 C          61.5355   85.8812   11.1890 C.ar    1  UNL1        0.0063
     28 C          64.1604   82.9215   10.8734 C.3     1  UNL1        0.4192
     29 F          65.0384   81.7609   11.2369 F       1  UNL1       -0.1658
     30 F          63.1613   81.9775   10.2727 F       1  UNL1       -0.1658
     31 F          65.1594   83.8654   11.4740 F       1  UNL1       -0.1658
     32 C          62.4224   84.1985   12.9587 C.1     1  UNL1        0.1004
     33 N          62.4314   83.6765   14.3649 N.1     1  UNL1       -0.1908
@<TRIPOS>BOND
     1     1     2    1
     2     2     3    2
     3     3    19    1
     4    19    22    1
     5    22    23   ar
     6    23    24   ar
     7    24    25   ar
     8    25    28    1
     9    28    29    1
    10    28    30    1
    11    28    31    1
    12    25    26   ar
    13    26    32    1
    14    32    33    3
    15    26    27   ar
    16    19    20    1
    17    20    21    1
    18     3     4    1
    19     4     5    2
    20     5     6    1
    21     6     7    1
    22     7     8    2
    23     7     9   am
    24     9    11    1
    25    11    12    1
    26    11    13    1
    27    13    14   ar
    28    14    15   ar
    29    15    16   ar
    30    16    17   ar
    31     6     2    1
    32    17    13   ar
    33    21    19    1
    34    27    22   ar
    35     9    10    1
    36    17    18    1
@<TRIPOS>MOLECULE
*****
 33 36 0 0 0
SMALL
GASTEIGER

@<TRIPOS>ATOM
      1 C          64.7410   86.7888   15.3071 C.3     1  UNL1        0.0285
      2 C          63.9676   87.3061   14.1305 C.2     1  UNL1       -0.0155
      3 C          63.5366   88.7264   13.9143 C.2     1  UNL1       -0.0059
      4 C          62.7920   88.7919   12.6138 C.2     1  UNL1        0.0895
      5 N          62.7629   87.4120   12.0263 N.2     1  UNL1       -0.2578
      6 C          63.4894   86.4937   12.9637 C.3     1  UNL1        0.1970
      7 C          63.7008   85.0215   12.7685 C.2     1  UNL1        0.2490
      8 O          64.5412   84.2491   13.7415 O.2     1  UNL1       -0.2726
      9 N          63.0716   84.3220   11.6003 N.am    1  UNL1       -0.2977
     10 H          62.5200   84.8290   10.9617 H       1  UNL1        0.1498
     11 C          63.2830   82.8498   11.4051 C.3     1  UNL1        0.1300
     12 C          64.0630   82.3543   10.2235 C.3     1  UNL1        0.0295
     13 C          62.7143   81.8732   12.3915 C.ar    1  UNL1        0.1524
     14 N          62.7383   80.3787   12.2664 N.ar    1  UNL1       -0.2065
     15 C          62.0606   79.8016   13.4738 C.ar    1  UNL1        0.2204
     16 N          61.6179   80.9395   14.3451 N.ar    1  UNL1       -0.1489
     17 N          62.0219   82.2199   13.6762 N.ar    1  UNL1       -0.2602
     18 H          61.8609   83.1283   14.0200 H       1  UNL1        0.1903
     19 C          63.8032   89.8789   14.8366 C.3     1  UNL1        0.0387
     20 C          63.0751   89.4072   16.0603 C.3     1  UNL1        0.0088
     21 C          63.7849   90.7286   16.0726 C.3     1  UNL1        0.0088
     22 C          64.6239   90.7509   13.9331 C.ar    1  UNL1       -0.0183
     23 C          64.0226   91.3033   12.6749 C.ar    1  UNL1       -0.0040
     24 C          64.8433   92.1752   11.7715 C.ar    1  UNL1        0.0042
     25 C          66.2653   92.4947   12.1263 C.ar    1  UNL1        0.0810
     26 C          66.8665   91.9423   13.3846 C.ar    1  UNL1        0.0720
     27 C          66.0459   91.0704   14.2880 C.ar    1  UNL1        0.0063
     28 C          67.0860   93.3667   11.2229 C.3     1  UNL1        0.4192
     29 F          67.9066   94.2386   10.3194 F       1  UNL1       -0.1658
     30 F          66.5943   94.5830   11.9501 F       1  UNL1       -0.1658
     31 F          67.5776   92.1504   10.4956 F       1  UNL1       -0.1658
     32 C          68.2885   92.2618   13.7395 C.1     1  UNL1        0.1004
     33 N          69.7105   92.5813   14.0943 N.1     1  UNL1       -0.1908
@<TRIPOS>BOND
     1     1     2    1
     2     2     3    2
     3     3    19    1
     4    19    22    1
     5    22    23   ar
     6    23    24   ar
     7    24    25   ar
     8    25    28    1
     9    28    29    1
    10    28    30    1
    11    28    31    1
    12    25    26   ar
    13    26    32    1
    14    32    33    3
    15    26    27   ar
    16    19    20    1
    17    20    21    1
    18     3     4    1
    19     4     5    2
    20     5     6    1
    21     6     7    1
    22     7     8    2
    23     7     9   am
    24     9    11    1
    25    11    12    1
    26    11    13    1
    27    13    14   ar
    28    14    15   ar
    29    15    16   ar
    30    16    17   ar
    31     6     2    1
    32    17    13   ar
    33    21    19    1
    34    27    22   ar
    35     9    10    1
    36    17    18    1
@<TRIPOS>MOLECULE
*****
 33 36 0 0 0
SMALL
GASTEIGER

@<TRIPOS>ATOM
      1 C          63.1299   90.1687   13.2129 C.3     1  UNL1        0.0285
      2 C          62.8799   90.4376   11.7585 C.2     1  UNL1       -0.0155
      3 C          61.7626   89.8677   10.9359 C.2     1  UNL1       -0.0059
      4 C          61.8955   90.4016    9.5404 C.2     1  UNL1        0.0895
      5 N          63.0949   91.3015    9.5007 N.2     1  UNL1       -0.2578
      6 C          63.7033   91.3238   10.8715 C.3     1  UNL1        0.1970
      7 C          64.9213   92.0965   11.2832 C.2     1  UNL1        0.2490
      8 O          66.1457   92.0840   10.4168 O.2     1  UNL1       -0.2726
      9 N          64.9148   92.8818   12.5611 N.am    1  UNL1       -0.2977
     10 H          64.1111   92.8900   13.1297 H       1  UNL1        0.1498
     11 C          66.1328   93.6545   12.9728 C.3     1  UNL1        0.1300
     12 C          66.5398   94.8776   12.2055 C.3     1  UNL1        0.0295
     13 C          66.9437   93.2042   14.1516 C.ar    1  UNL1        0.1524
     14 N          68.3788   92.7688   14.1200 N.ar    1  UNL1       -0.2065
     15 C          68.7838   92.4058   15.5179 C.ar    1  UNL1        0.2204
     16 N          67.5991   92.6169   16.4134 N.ar    1  UNL1       -0.1489
     17 N          66.4618   93.1104   15.5690 N.ar    1  UNL1       -0.2602
     18 H          65.5579   93.3335   15.8889 H       1  UNL1        0.1903
     19 C          60.6991   88.9287   11.4230 C.3     1  UNL1        0.0387
     20 C          59.6641   89.9175   11.8715 C.3     1  UNL1        0.0088
     21 C          59.4045   88.4463   12.0072 C.3     1  UNL1        0.0088
     22 C          61.3649   87.6138   11.1437 C.ar    1  UNL1       -0.0183
     23 C          61.2306   86.9773    9.7922 C.ar    1  UNL1       -0.0040
     24 C          61.8963   85.6625    9.5129 C.ar    1  UNL1        0.0042
     25 C          62.6964   84.9842   10.5853 C.ar    1  UNL1        0.0810
     26 C          62.8307   85.6207   11.9368 C.ar    1  UNL1        0.0720
     27 C          62.1649   86.9355   12.2161 C.ar    1  UNL1        0.0063
     28 C          63.3621   83.6693   10.3060 C.3     1  UNL1        0.4192
     29 F          64.0278   82.3545   10.0267 F       1  UNL1       -0.1658
     30 F          64.2354   84.3293    9.2804 F       1  UNL1       -0.1658
     31 F          62.4888   83.0094   11.3315 F       1  UNL1       -0.1658
     32 C          63.6307   84.9424   13.0091 C.1     1  UNL1        0.1004
     33 N          64.4307   84.2641   14.0815 N.1     1  UNL1       -0.1908
@<TRIPOS>BOND
     1     1     2    1
     2     2     3    2
     3     3    19    1
     4    19    22    1
     5    22    23   ar
     6    23    24   ar
     7    24    25   ar
     8    25    28    1
     9    28    29    1
    10    28    30    1
    11    28    31    1
    12    25    26   ar
    13    26    32    1
    14    32    33    3
    15    26    27   ar
    16    19    20    1
    17    20    21    1
    18     3     4    1
    19     4     5    2
    20     5     6    1
    21     6     7    1
    22     7     8    2
    23     7     9   am
    24     9    11    1
    25    11    12    1
    26    11    13    1
    27    13    14   ar
    28    14    15   ar
    29    15    16   ar
    30    16    17   ar
    31     6     2    1
    32    17    13   ar
    33    21    19    1
    34    27    22   ar
    35     9    10    1
    36    17    18    1
@<TRIPOS>MOLECULE
*****
 33 36 0 0 0
SMALL
GASTEIGER

@<TRIPOS>ATOM
      1 C          62.2598   89.4969   12.3165 C.3     1  UNL1        0.0285
      2 C          63.0527   88.4804   13.0835 C.2     1  UNL1       -0.0155
      3 C          63.8064   88.7279   14.3565 C.2     1  UNL1       -0.0059
      4 C          64.4505   87.4384   14.7718 C.2     1  UNL1        0.0895
      5 N          64.0949   86.3941   13.7554 N.2     1  UNL1       -0.2578
      6 C          63.2310   87.0381   12.7120 C.3     1  UNL1        0.1970
      7 C          62.6478   86.3591   11.5083 C.2     1  UNL1        0.2490
      8 O          61.9848   85.0211   11.6498 O.2     1  UNL1       -0.2726
      9 N          62.7275   87.0182   10.1633 N.am    1  UNL1       -0.2977
     10 H          63.1627   87.8964   10.0705 H       1  UNL1        0.1498
     11 C          62.1443   86.3391    8.9596 C.3     1  UNL1        0.1300
     12 C          62.8958   85.2284    8.2875 C.3     1  UNL1        0.0295
     13 C          60.8097   86.7708    8.4281 C.ar    1  UNL1        0.1524
     14 N          60.2844   88.1755    8.3999 N.ar    1  UNL1       -0.2065
     15 C          58.9161   88.1464    7.7858 C.ar    1  UNL1        0.2204
     16 N          58.5958   86.7237    7.4346 N.ar    1  UNL1       -0.1489
     17 N          59.7661   85.8735    7.8315 N.ar    1  UNL1       -0.2602
     18 H          59.8369   84.8979    7.7201 H       1  UNL1        0.1903
     19 C          63.8997   90.0351   15.0862 C.3     1  UNL1        0.0387
     20 C          63.1301   89.6956   16.3282 C.3     1  UNL1        0.0088
     21 C          63.7145   91.0668   16.1592 C.3     1  UNL1        0.0088
     22 C          64.7016   90.8285   14.0975 C.ar    1  UNL1       -0.0183
     23 C          64.0413   91.3864   12.8717 C.ar    1  UNL1       -0.0040
     24 C          64.8432   92.1798   11.8831 C.ar    1  UNL1        0.0042
     25 C          66.3055   92.4153   12.1203 C.ar    1  UNL1        0.0810
     26 C          66.9658   91.8574   13.3461 C.ar    1  UNL1        0.0720
     27 C          66.1639   91.0640   14.3347 C.ar    1  UNL1        0.0063
     28 C          67.1075   93.2087   11.1316 C.3     1  UNL1        0.4192
     29 F          67.9094   94.0021   10.1430 F       1  UNL1       -0.1658
     30 F          66.7205   94.4760   11.8347 F       1  UNL1       -0.1658
     31 F          67.4944   91.9415   10.4286 F       1  UNL1       -0.1658
     32 C          68.4281   92.0929   13.5833 C.1     1  UNL1        0.1004
     33 N          69.8904   92.3283   13.8205 N.1     1  UNL1       -0.1908
@<TRIPOS>BOND
     1     1     2    1
     2     2     3    2
     3     3    19    1
     4    19    22    1
     5    22    23   ar
     6    23    24   ar
     7    24    25   ar
     8    25    28    1
     9    28    29    1
    10    28    30    1
    11    28    31    1
    12    25    26   ar
    13    26    32    1
    14    32    33    3
    15    26    27   ar
    16    19    20    1
    17    20    21    1
    18     3     4    1
    19     4     5    2
    20     5     6    1
    21     6     7    1
    22     7     8    2
    23     7     9   am
    24     9    11    1
    25    11    12    1
    26    11    13    1
    27    13    14   ar
    28    14    15   ar
    29    15    16   ar
    30    16    17   ar
    31     6     2    1
    32    17    13   ar
    33    21    19    1
    34    27    22   ar
    35     9    10    1
    36    17    18    1
@<TRIPOS>MOLECULE
*****
 33 36 0 0 0
SMALL
GASTEIGER

@<TRIPOS>ATOM
      1 C          63.1850   90.1390   13.1743 C.3     1  UNL1        0.0285
      2 C          62.9209   90.4477   11.7304 C.2     1  UNL1       -0.0155
      3 C          61.8014   89.8926   10.9007 C.2     1  UNL1       -0.0059
      4 C          61.9185   90.4676    9.5201 C.2     1  UNL1        0.0895
      5 N          63.1104   91.3780    9.4968 N.2     1  UNL1       -0.2578
      6 C          63.7299   91.3657   10.8627 C.3     1  UNL1        0.1970
      7 C          64.9451   92.1362   11.2867 C.2     1  UNL1        0.2490
      8 O          66.1386   92.2119   10.3814 O.2     1  UNL1       -0.2726
      9 N          64.9666   92.8308   12.6160 N.am    1  UNL1       -0.2977
     10 H          64.1832   92.7811   13.2101 H       1  UNL1        0.1498
     11 C          66.1818   93.6013   13.0400 C.3     1  UNL1        0.1300
     12 C          66.5546   94.8665   12.3256 C.3     1  UNL1        0.0295
     13 C          67.0242   93.1065   14.1783 C.ar    1  UNL1        0.1524
     14 N          66.5578   92.8764   15.5852 N.ar    1  UNL1       -0.2065
     15 C          67.7262   92.3827   16.3858 C.ar    1  UNL1        0.2204
     16 N          68.9147   92.3076   15.4737 N.ar    1  UNL1       -0.1489
     17 N          68.4808   92.7549   14.1093 N.ar    1  UNL1       -0.2602
     18 H          69.0518   92.8084   13.3091 H       1  UNL1        0.1903
     19 C          60.7494   88.9314   11.3690 C.3     1  UNL1        0.0387
     20 C          59.7025   89.8984   11.8366 C.3     1  UNL1        0.0088
     21 C          59.4607   88.4218   11.9433 C.3     1  UNL1        0.0088
     22 C          61.4311   87.6304   11.0640 C.ar    1  UNL1       -0.0183
     23 C          62.1055   86.8618   12.1614 C.ar    1  UNL1       -0.0040
     24 C          62.7871   85.5609   11.8564 C.ar    1  UNL1        0.0042
     25 C          62.7944   85.0287   10.4540 C.ar    1  UNL1        0.0810
     26 C          62.1200   85.7974    9.3566 C.ar    1  UNL1        0.0720
     27 C          61.4383   87.0983    9.6616 C.ar    1  UNL1        0.0063
     28 C          63.4761   83.7278   10.1490 C.3     1  UNL1        0.4192
     29 F          64.1577   82.4269    9.8440 F       1  UNL1       -0.1658
     30 F          64.3387   84.4177    9.1342 F       1  UNL1       -0.1658
     31 F          62.6134   83.0379   11.1637 F       1  UNL1       -0.1658
     32 C          62.1272   85.2652    7.9542 C.1     1  UNL1        0.1004
     33 N          62.1344   84.7330    6.5518 N.1     1  UNL1       -0.1908
@<TRIPOS>BOND
     1     1     2    1
     2     2     3    2
     3     3    19    1
     4    19    22    1
     5    22    23   ar
     6    23    24   ar
     7    24    25   ar
     8    25    28    1
     9    28    29    1
    10    28    30    1
    11    28    31    1
    12    25    26   ar
    13    26    32    1
    14    32    33    3
    15    26    27   ar
    16    19    20    1
    17    20    21    1
    18     3     4    1
    19     4     5    2
    20     5     6    1
    21     6     7    1
    22     7     8    2
    23     7     9   am
    24     9    11    1
    25    11    12    1
    26    11    13    1
    27    13    14   ar
    28    14    15   ar
    29    15    16   ar
    30    16    17   ar
    31     6     2    1
    32    17    13   ar
    33    21    19    1
    34    27    22   ar
    35     9    10    1
    36    17    18    1
