@<TRIPOS>MOLECULE
*****
 57 64 0 0 0
SMALL
GASTEIGER

@<TRIPOS>ATOM
      1 C          62.6919   83.7930   12.0167 C.ar    1  UNL1        0.0560
      2 C          62.2354   82.3876   12.2736 C.ar    1  UNL1        0.0444
      3 C          62.5700   81.7159   13.5724 C.ar    1  UNL1        0.1726
      4 C          63.3612   82.4497   14.6143 C.ar    1  UNL1        0.1736
      5 C          63.8177   83.8551   14.3574 C.ar    1  UNL1        0.0548
      6 C          63.4831   84.5268   13.0586 C.ar    1  UNL1        0.0569
      7 N          61.4573   86.0242    9.0904 N.ar    1  UNL1       -0.1285
      8 N          62.2276   84.9727    8.3482 N.ar    1  UNL1       -0.0406
      9 N          62.7839   84.0090    9.3540 N.ar    1  UNL1       -0.1074
     10 C          62.3573   84.4648   10.7179 C.ar    1  UNL1        0.2075
     11 N          61.5374   85.7102   10.5550 N.ar    1  UNL1       -0.1253
     12 C          59.2868   89.5086    7.2471 C.ar    1  UNL1       -0.0207
     13 C          60.2504   89.7363    8.3738 C.ar    1  UNL1       -0.0026
     14 C          60.9739   88.5748    8.9883 C.ar    1  UNL1        0.0206
     15 C          60.7338   87.1856    8.4760 C.ar    1  UNL1        0.1045
     16 C          59.7701   86.9579    7.3493 C.ar    1  UNL1        0.0206
     17 C          59.0466   88.1193    6.7348 C.ar    1  UNL1       -0.0026
     18 C          58.5633   90.6700    6.6327 C.3     1  UNL1        0.0437
     19 C          58.4471   90.7771    5.1410 C.3     1  UNL1        0.0771
     20 C          62.6246   94.2515    0.9306 C.ar    1  UNL1        0.1721
     21 C          62.9181   93.1905    1.9494 C.ar    1  UNL1        0.0356
     22 C          61.8003   92.5871    2.7473 C.ar    1  UNL1       -0.0202
     23 C          60.3891   93.0448    2.5264 C.ar    1  UNL1       -0.0068
     24 C          60.0956   94.1060    1.5076 C.ar    1  UNL1        0.0368
     25 C          61.2133   94.7093    0.7097 C.ar    1  UNL1        0.1721
     26 C          59.2713   92.4415    3.3243 C.3     1  UNL1        0.0990
     27 N          59.5649   91.3805    4.3431 N.3     1  UNL1       -0.2683
     28 C          60.9761   90.9227    4.5640 C.3     1  UNL1        0.0771
     29 C          62.0939   91.5260    3.7661 C.3     1  UNL1        0.0435
     30 C          65.1657   94.5061    0.4528 C.3     1  UNL1        0.2526
     31 O          63.7423   94.8549    0.1327 O.3     1  UNL1       -0.4684
     32 O          60.9198   95.7704   -0.3091 O.3     1  UNL1       -0.4684
     33 C          59.6404   96.5497   -0.2331 C.3     1  UNL1        0.2526
     34 N          63.9398   85.9324   12.8017 N.am    1  UNL1       -0.2777
     35 C          63.6228   87.0163   13.7890 C.2     1  UNL1        0.2843
     36 O          62.8492   86.6946   15.0332 O.2     1  UNL1       -0.2665
     37 H          64.4475   86.1436   11.9851 H       1  UNL1        0.1553
     38 C          64.0793   88.4218   13.5322 C.ar    1  UNL1        0.2017
     39 C          64.8138   89.1786   14.5989 C.ar    1  UNL1        0.0843
     40 C          65.2704   90.5840   14.3421 C.ar    1  UNL1        0.2018
     41 O          66.0049   91.3408   15.4089 O.2     1  UNL1       -0.2864
     42 C          64.9925   91.2329   13.0185 C.ar    1  UNL1        0.0750
     43 C          65.4491   92.6385   12.7617 C.ar    1  UNL1        0.0238
     44 C          65.1712   93.2873   11.4381 C.ar    1  UNL1        0.0658
     45 C          64.4368   92.5306   10.3714 C.ar    1  UNL1        0.0207
     46 C          63.9802   91.1249   10.6282 C.ar    1  UNL1        0.0391
     47 C          64.2580   90.4761   11.9518 C.ar    1  UNL1        0.1486
     48 O          63.8015   89.0706   12.2086 O.2     1  UNL1       -0.4487
     49 N          65.6278   94.6928   11.1812 N.ar    1  UNL1       -0.2864
     50 C          65.3004   95.5192    9.9730 C.ar    1  UNL1        0.1022
     51 C          65.9622   96.8559   10.1325 C.ar    1  UNL1        0.1196
     52 N          66.6986   96.8556   11.4393 N.ar    1  UNL1       -0.2220
     53 C          66.4919   95.5187   12.0875 C.ar    1  UNL1        0.1828
     54 O          62.1133   80.3103   13.8293 O.3     1  UNL1       -0.4684
     55 C          60.6774   80.0381   14.1668 C.3     1  UNL1        0.2526
     56 O          63.6958   81.7779   15.9131 O.3     1  UNL1       -0.4683
     57 C          64.7809   82.3334   16.7869 C.3     1  UNL1        0.2526
@<TRIPOS>BOND
     1    30    31    1
     2    31    20    1
     3    20    21   ar
     4    21    22   ar
     5    22    23   ar
     6    23    24   ar
     7    24    25   ar
     8    25    32    1
     9    32    33    1
    10    23    26    1
    11    26    27    1
    12    27    19    1
    13    19    18    1
    14    18    12    1
    15    12    13   ar
    16    13    14   ar
    17    14    15   ar
    18    15     7    1
    19     7     8   ar
    20     8     9   ar
    21     9    10   ar
    22    10     1    1
    23     1     2   ar
    24     2     3   ar
    25     3    54    1
    26    54    55    1
    27     3     4   ar
    28     4    56    1
    29    56    57    1
    30     4     5   ar
    31     5     6   ar
    32     6    34    1
    33    34    35   am
    34    35    36    2
    35    35    38    1
    36    38    39   ar
    37    39    40   ar
    38    40    41    2
    39    40    42   ar
    40    42    43   ar
    41    43    44   ar
    42    44    49    1
    43    49    50   ar
    44    50    51   ar
    45    51    52   ar
    46    52    53   ar
    47    44    45   ar
    48    45    46   ar
    49    46    47   ar
    50    47    48   ar
    51    10    11   ar
    52    15    16   ar
    53    16    17   ar
    54    27    28    1
    55    28    29    1
    56    25    20   ar
    57    17    12   ar
    58    29    22    1
    59    11     7   ar
    60     6     1   ar
    61    48    38   ar
    62    47    42   ar
    63    53    49   ar
    64    34    37    1
@<TRIPOS>MOLECULE
*****
 57 64 0 0 0
SMALL
GASTEIGER

@<TRIPOS>ATOM
      1 C          66.3675   92.4915   13.7118 C.ar    1  UNL1        0.0560
      2 C          66.9191   93.8386   14.0733 C.ar    1  UNL1        0.0444
      3 C          67.8723   93.9748   15.2234 C.ar    1  UNL1        0.1726
      4 C          68.2738   92.7637   16.0122 C.ar    1  UNL1        0.1736
      5 C          67.7222   91.4165   15.6507 C.ar    1  UNL1        0.0548
      6 C          66.7690   91.2804   14.5005 C.ar    1  UNL1        0.0569
      7 N          63.6395   91.5450   11.1180 N.ar    1  UNL1       -0.1285
      8 N          64.2555   92.7468   10.4652 N.ar    1  UNL1       -0.0406
      9 N          65.3524   93.2477   11.3574 N.ar    1  UNL1       -0.1074
     10 C          65.4143   92.3554   12.5616 C.ar    1  UNL1        0.2075
     11 N          64.3556   91.3031   12.4136 N.ar    1  UNL1       -0.1253
     12 C          60.2397   89.0954    9.4775 C.ar    1  UNL1       -0.0207
     13 C          59.9561   90.2871   10.3433 C.ar    1  UNL1       -0.0026
     14 C          61.0894   91.1036   10.8901 C.ar    1  UNL1        0.0206
     15 C          62.5063   90.7285   10.5712 C.ar    1  UNL1        0.1045
     16 C          62.7899   89.5368    9.7055 C.ar    1  UNL1        0.0206
     17 C          61.6567   88.7203    9.1587 C.ar    1  UNL1       -0.0026
     18 C          59.1065   88.2789    8.9307 C.3     1  UNL1        0.0437
     19 C          58.9852   88.0600    7.4518 C.3     1  UNL1        0.0771
     20 C          60.3771   93.1348    3.0292 C.ar    1  UNL1        0.1721
     21 C          59.0963   92.7461    3.7063 C.ar    1  UNL1        0.0356
     22 C          59.0685   91.5745    4.6427 C.ar    1  UNL1       -0.0202
     23 C          60.3215   90.7917    4.9020 C.ar    1  UNL1       -0.0068
     24 C          61.6023   91.1805    4.2248 C.ar    1  UNL1        0.0368
     25 C          61.6301   92.3520    3.2885 C.ar    1  UNL1        0.1721
     26 C          60.2938   89.6202    5.8383 C.3     1  UNL1        0.0990
     27 N          59.0130   89.2315    6.5154 N.3     1  UNL1       -0.2683
     28 C          57.7600   90.0143    6.2561 C.3     1  UNL1        0.0771
     29 C          57.7877   91.1858    5.3197 C.3     1  UNL1        0.0435
     30 C          59.6485   94.2502    0.7987 C.3     1  UNL1        0.2526
     31 O          60.4049   94.3063    2.0928 O.3     1  UNL1       -0.4684
     32 O          62.9109   92.7408    2.6114 O.3     1  UNL1       -0.4684
     33 C          63.0077   92.7091    1.1148 C.3     1  UNL1        0.2526
     34 N          66.2173   89.9331   14.1390 N.am    1  UNL1       -0.2777
     35 C          64.8759   89.5080   14.6585 C.2     1  UNL1        0.2843
     36 O          64.0862   90.4300   15.5395 O.2     1  UNL1       -0.2665
     37 H          66.7356   89.3280   13.5608 H       1  UNL1        0.1553
     38 C          64.3242   88.1608   14.2971 C.ar    1  UNL1        0.2017
     39 C          63.5197   87.9919   13.0424 C.ar    1  UNL1        0.0843
     40 C          62.9680   86.6448   12.6809 C.ar    1  UNL1        0.2018
     41 O          62.1635   86.4758   11.4261 O.2     1  UNL1       -0.2864
     42 C          63.2207   85.4665   13.5741 C.ar    1  UNL1        0.0750
     43 C          62.6690   84.1192   13.2126 C.ar    1  UNL1        0.0238
     44 C          62.9217   82.9410   14.1058 C.ar    1  UNL1        0.0658
     45 C          63.7262   83.1099   15.3605 C.ar    1  UNL1        0.0207
     46 C          64.2779   84.4571   15.7220 C.ar    1  UNL1        0.0391
     47 C          64.0252   85.6354   14.8288 C.ar    1  UNL1        0.1486
     48 O          64.5769   86.9825   15.1903 O.2     1  UNL1       -0.4487
     49 N          62.3700   81.5938   13.7444 N.ar    1  UNL1       -0.2864
     50 C          63.0138   80.5938   12.8302 C.ar    1  UNL1        0.1022
     51 C          62.1193   79.3920   12.7545 C.ar    1  UNL1        0.1196
     52 N          60.9228   79.6493   13.6217 N.ar    1  UNL1       -0.2220
     53 C          61.0777   81.0101   14.2335 C.ar    1  UNL1        0.1828
     54 O          68.4240   95.3220   15.5849 O.3     1  UNL1       -0.4684
     55 C          69.8649   95.4617   15.9777 C.3     1  UNL1        0.2526
     56 O          69.2270   92.8998   17.1623 O.3     1  UNL1       -0.4683
     57 C          70.4998   92.1065   17.1795 C.3     1  UNL1        0.2526
@<TRIPOS>BOND
     1    30    31    1
     2    31    20    1
     3    20    21   ar
     4    21    22   ar
     5    22    23   ar
     6    23    24   ar
     7    24    25   ar
     8    25    32    1
     9    32    33    1
    10    23    26    1
    11    26    27    1
    12    27    19    1
    13    19    18    1
    14    18    12    1
    15    12    13   ar
    16    13    14   ar
    17    14    15   ar
    18    15     7    1
    19     7     8   ar
    20     8     9   ar
    21     9    10   ar
    22    10     1    1
    23     1     2   ar
    24     2     3   ar
    25     3    54    1
    26    54    55    1
    27     3     4   ar
    28     4    56    1
    29    56    57    1
    30     4     5   ar
    31     5     6   ar
    32     6    34    1
    33    34    35   am
    34    35    36    2
    35    35    38    1
    36    38    39   ar
    37    39    40   ar
    38    40    41    2
    39    40    42   ar
    40    42    43   ar
    41    43    44   ar
    42    44    49    1
    43    49    50   ar
    44    50    51   ar
    45    51    52   ar
    46    52    53   ar
    47    44    45   ar
    48    45    46   ar
    49    46    47   ar
    50    47    48   ar
    51    10    11   ar
    52    15    16   ar
    53    16    17   ar
    54    27    28    1
    55    28    29    1
    56    25    20   ar
    57    17    12   ar
    58    29    22    1
    59    11     7   ar
    60     6     1   ar
    61    48    38   ar
    62    47    42   ar
    63    53    49   ar
    64    34    37    1
