@<TRIPOS>MOLECULE
*****
 24 26 0 0 0
SMALL
GASTEIGER

@<TRIPOS>ATOM
      1 C          63.5258   85.9600   15.9946 C.3     1  UNL1        0.0838
      2 C          63.0394   87.0729   16.8748 C.3     1  UNL1        0.0437
      3 C          63.4753   88.3716   16.2636 C.ar    1  UNL1       -0.0247
      4 C          63.2816   89.7966   16.6900 C.ar    1  UNL1       -0.0045
      5 C          63.8437   90.9112   15.8584 C.ar    1  UNL1       -0.0003
      6 C          64.5994   90.6008   14.6004 C.ar    1  UNL1        0.0012
      7 C          64.7931   89.1758   14.1740 C.ar    1  UNL1       -0.0045
      8 C          64.2310   88.0612   15.0056 C.ar    1  UNL1       -0.0247
      9 C          64.2622   86.5708   14.8394 C.3     1  UNL1        0.0437
     10 C          65.1615   91.7156   13.7688 C.ar    1  UNL1        0.0193
     11 C          64.7793   91.8394   12.3236 C.ar    1  UNL1        0.0055
     12 C          65.3414   92.9542   11.4920 C.ar    1  UNL1        0.0497
     13 C          66.2857   93.9450   12.1056 C.ar    1  UNL1        0.2223
     14 F          66.8478   95.0597   11.2741 F       1  UNL1       -0.1832
     15 N          66.6679   93.8211   13.5509 N.ar    1  UNL1       -0.2165
     16 C          66.1058   92.7064   14.3824 C.ar    1  UNL1        0.1012
     17 N          63.3130   84.4937   16.2285 N.3     1  UNL1       -0.1841
     18 H          64.1969   84.1193   16.5736 H       1  UNL1        0.1484
     19 S          62.8801   83.6088   15.0974 S.O2    1  UNL1        0.0390
     20 O          64.1007   82.7595   15.2947 O.2     1  UNL1       -0.1576
     21 O          61.6596   84.4580   14.9001 O.2     1  UNL1       -0.1576
     22 C          61.6870   81.4622   14.2496 C.3     1  UNL1        0.0270
     23 C          62.4473   82.7238   13.9662 C.3     1  UNL1        0.1457
     24 C          62.7747   83.1005   12.5517 C.3     1  UNL1        0.0270
@<TRIPOS>BOND
     1    22    23    1
     2    23    24    1
     3    23    19    1
     4    19    20    2
     5    19    21    2
     6    19    17    1
     7     1    17    1
     8     1     2    1
     9     2     3    1
    10     3     4   ar
    11     4     5   ar
    12     5     6   ar
    13     6    10    1
    14    10    11   ar
    15    11    12   ar
    16    12    13   ar
    17    13    14    1
    18    13    15   ar
    19    15    16   ar
    20     6     7   ar
    21     7     8   ar
    22     8     9    1
    23     9     1    1
    24     8     3   ar
    25    16    10   ar
    26    17    18    1
@<TRIPOS>MOLECULE
*****
 24 26 0 0 0
SMALL
GASTEIGER

@<TRIPOS>ATOM
      1 C          63.8278   90.3093   13.0356 C.3     1  UNL1        0.0838
      2 C          63.0485   89.8980   11.8217 C.3     1  UNL1        0.0437
      3 C          62.8699   88.4093   11.8680 C.ar    1  UNL1       -0.0247
      4 C          62.1846   87.4513   10.9393 C.ar    1  UNL1       -0.0045
      5 C          62.1682   85.9846   11.2531 C.ar    1  UNL1       -0.0003
      6 C          62.8371   85.4760   12.4957 C.ar    1  UNL1        0.0012
      7 C          63.5224   86.4340   13.4243 C.ar    1  UNL1       -0.0045
      8 C          63.5388   87.9007   13.1105 C.ar    1  UNL1       -0.0247
      9 C          64.1308   89.0750   13.8321 C.3     1  UNL1        0.0437
     10 C          62.8207   84.0092   12.8095 C.ar    1  UNL1        0.0193
     11 C          62.8526   83.0038   11.6968 C.ar    1  UNL1        0.0055
     12 C          62.8361   81.5370   12.0106 C.ar    1  UNL1        0.0497
     13 C          62.7879   81.0758   13.4371 C.ar    1  UNL1        0.2223
     14 F          62.7715   79.6091   13.7509 F       1  UNL1       -0.1832
     15 N          62.7561   82.0813   14.5498 N.ar    1  UNL1       -0.2165
     16 C          62.7725   83.5479   14.2360 C.ar    1  UNL1        0.1012
     17 N          64.2329   91.7093   13.3906 N.3     1  UNL1       -0.1841
     18 H          64.2329   92.2449   12.5225 H       1  UNL1        0.1484
     19 S          65.5535   91.9622   14.0553 S.O2    1  UNL1        0.0390
     20 O          66.2335   91.9245   12.7188 O.2     1  UNL1       -0.1576
     21 O          64.8736   91.9999   15.3918 O.2     1  UNL1       -0.1576
     22 C          66.9188   92.7661   16.1144 C.3     1  UNL1        0.0270
     23 C          66.8743   92.2150   14.7201 C.3     1  UNL1        0.1457
     24 C          68.1504   91.9168   13.9904 C.3     1  UNL1        0.0270
@<TRIPOS>BOND
     1    22    23    1
     2    23    24    1
     3    23    19    1
     4    19    20    2
     5    19    21    2
     6    19    17    1
     7     1    17    1
     8     1     2    1
     9     2     3    1
    10     3     4   ar
    11     4     5   ar
    12     5     6   ar
    13     6    10    1
    14    10    11   ar
    15    11    12   ar
    16    12    13   ar
    17    13    14    1
    18    13    15   ar
    19    15    16   ar
    20     6     7   ar
    21     7     8   ar
    22     8     9    1
    23     9     1    1
    24     8     3   ar
    25    16    10   ar
    26    17    18    1
@<TRIPOS>MOLECULE
*****
 24 26 0 0 0
SMALL
GASTEIGER

@<TRIPOS>ATOM
      1 C          63.6933   89.7780   13.2800 C.3     1  UNL1        0.0838
      2 C          64.3667   89.1218   14.4487 C.3     1  UNL1        0.0437
      3 C          64.2411   87.6364   14.2821 C.ar    1  UNL1       -0.0247
      4 C          64.7135   86.4885   15.1241 C.ar    1  UNL1       -0.0045
      5 C          64.4350   85.0786   14.6943 C.ar    1  UNL1       -0.0003
      6 C          63.6840   84.8167   13.4226 C.ar    1  UNL1        0.0012
      7 C          63.2115   85.9647   12.5806 C.ar    1  UNL1       -0.0045
      8 C          63.4900   87.3745   13.0103 C.ar    1  UNL1       -0.0247
      9 C          63.1515   88.6981   12.3910 C.3     1  UNL1        0.0437
     10 C          63.4054   83.4068   12.9928 C.ar    1  UNL1        0.0193
     11 C          63.4655   83.0399   11.5396 C.ar    1  UNL1        0.0055
     12 C          63.1869   81.6300   11.1099 C.ar    1  UNL1        0.0497
     13 C          62.8483   80.5870   12.1334 C.ar    1  UNL1        0.2223
     14 F          62.5697   79.1772   11.7037 F       1  UNL1       -0.1832
     15 N          62.7882   80.9540   13.5866 N.ar    1  UNL1       -0.2165
     16 C          63.0667   82.3638   14.0163 C.ar    1  UNL1        0.1012
     17 N          63.5813   91.2547   13.0419 N.3     1  UNL1       -0.1841
     18 H          62.8709   91.3838   12.3215 H       1  UNL1        0.1484
     19 S          64.7849   92.0379   12.6085 S.O2    1  UNL1        0.0390
     20 O          65.1247   92.3101   14.0439 O.2     1  UNL1       -0.1576
     21 O          64.4451   91.7658   11.1731 O.2     1  UNL1       -0.1576
     22 C          66.6394   92.5275   10.8560 C.3     1  UNL1        0.0270
     23 C          65.9886   92.8212   12.1751 C.3     1  UNL1        0.1457
     24 C          66.5414   93.8981   13.0609 C.3     1  UNL1        0.0270
@<TRIPOS>BOND
     1    22    23    1
     2    23    24    1
     3    23    19    1
     4    19    20    2
     5    19    21    2
     6    19    17    1
     7     1    17    1
     8     1     2    1
     9     2     3    1
    10     3     4   ar
    11     4     5   ar
    12     5     6   ar
    13     6    10    1
    14    10    11   ar
    15    11    12   ar
    16    12    13   ar
    17    13    14    1
    18    13    15   ar
    19    15    16   ar
    20     6     7   ar
    21     7     8   ar
    22     8     9    1
    23     9     1    1
    24     8     3   ar
    25    16    10   ar
    26    17    18    1
@<TRIPOS>MOLECULE
*****
 24 26 0 0 0
SMALL
GASTEIGER

@<TRIPOS>ATOM
      1 C          61.4546   89.5923   11.0692 C.3     1  UNL1        0.0838
      2 C          62.1582   90.5539   10.1579 C.3     1  UNL1        0.0437
      3 C          63.3399   91.1109   10.8950 C.ar    1  UNL1       -0.0247
      4 C          64.3951   92.1004   10.4982 C.ar    1  UNL1       -0.0045
      5 C          65.4770   92.4726   11.4681 C.ar    1  UNL1       -0.0003
      6 C          65.5037   91.8553   12.8350 C.ar    1  UNL1        0.0012
      7 C          64.4486   90.8657   13.2318 C.ar    1  UNL1       -0.0045
      8 C          63.3667   90.4936   12.2618 C.ar    1  UNL1       -0.0247
      9 C          62.2015   89.5551   12.3694 C.3     1  UNL1        0.0437
     10 C          66.5857   92.2275   13.8050 C.ar    1  UNL1        0.0193
     11 C          66.2282   92.6844   15.1882 C.ar    1  UNL1        0.0055
     12 C          67.3102   93.0567   16.1582 C.ar    1  UNL1        0.0497
     13 C          68.7497   92.9720   15.7449 C.ar    1  UNL1        0.2223
     14 F          69.8316   93.3442   16.7148 F       1  UNL1       -0.1832
     15 N          69.1071   92.5150   14.3615 N.ar    1  UNL1       -0.2165
     16 C          68.0252   92.1428   13.3916 C.ar    1  UNL1        0.1012
     17 N          60.2208   88.8061   10.7383 N.3     1  UNL1       -0.1841
     18 H          59.9452   88.3181   11.5905 H       1  UNL1        0.1484
     19 S          60.2558   87.7807    9.6441 S.O2    1  UNL1        0.0390
     20 O          60.7589   86.7577   10.6190 O.2     1  UNL1       -0.1576
     21 O          59.7528   88.8037    8.6692 O.2     1  UNL1       -0.1576
     22 C          59.0922   86.5551    7.6708 C.3     1  UNL1        0.0270
     23 C          60.2909   86.7551    8.5500 C.3     1  UNL1        0.1457
     24 C          61.5248   85.9297    8.3350 C.3     1  UNL1        0.0270
@<TRIPOS>BOND
     1    22    23    1
     2    23    24    1
     3    23    19    1
     4    19    20    2
     5    19    21    2
     6    19    17    1
     7     1    17    1
     8     1     2    1
     9     2     3    1
    10     3     4   ar
    11     4     5   ar
    12     5     6   ar
    13     6    10    1
    14    10    11   ar
    15    11    12   ar
    16    12    13   ar
    17    13    14    1
    18    13    15   ar
    19    15    16   ar
    20     6     7   ar
    21     7     8   ar
    22     8     9    1
    23     9     1    1
    24     8     3   ar
    25    16    10   ar
    26    17    18    1
@<TRIPOS>MOLECULE
*****
 24 26 0 0 0
SMALL
GASTEIGER

@<TRIPOS>ATOM
      1 C          62.3578   87.1683   11.9217 C.3     1  UNL1        0.0838
      2 C          62.1834   88.3912   11.0708 C.3     1  UNL1        0.0437
      3 C          63.0527   89.4760   11.6343 C.ar    1  UNL1       -0.0247
      4 C          63.2882   90.8954   11.2104 C.ar    1  UNL1       -0.0045
      5 C          64.2353   91.7623   11.9858 C.ar    1  UNL1       -0.0003
      6 C          64.9469   91.2099   13.1852 C.ar    1  UNL1        0.0012
      7 C          64.7114   89.7904   13.6091 C.ar    1  UNL1       -0.0045
      8 C          63.7643   88.9235   12.8337 C.ar    1  UNL1       -0.0247
      9 C          63.3348   87.4973   13.0112 C.3     1  UNL1        0.0437
     10 C          65.8941   92.0769   13.9606 C.ar    1  UNL1        0.0193
     11 C          66.4561   91.5941   15.2648 C.ar    1  UNL1        0.0055
     12 C          67.4033   92.4612   16.0402 C.ar    1  UNL1        0.0497
     13 C          67.7884   93.8110   15.5113 C.ar    1  UNL1        0.2223
     14 F          68.7355   94.6780   16.2867 F       1  UNL1       -0.1832
     15 N          67.2263   94.2938   14.2070 N.ar    1  UNL1       -0.2165
     16 C          66.2792   93.4267   13.4317 C.ar    1  UNL1        0.1012
     17 N          61.6750   85.8482   11.7188 N.3     1  UNL1       -0.1841
     18 H          61.0984   85.6850   12.5442 H       1  UNL1        0.1484
     19 S          62.4901   84.6069   11.5075 S.O2    1  UNL1        0.0390
     20 O          62.6967   84.9870   10.0713 O.2     1  UNL1       -0.1576
     21 O          62.2834   84.2268   12.9437 O.2     1  UNL1       -0.1576
     22 C          63.2413   82.2474   12.2940 C.3     1  UNL1        0.0270
     23 C          63.3052   83.3655   11.2962 C.3     1  UNL1        0.1457
     24 C          64.1842   83.2423   10.0870 C.3     1  UNL1        0.0270
@<TRIPOS>BOND
     1    22    23    1
     2    23    24    1
     3    23    19    1
     4    19    20    2
     5    19    21    2
     6    19    17    1
     7     1    17    1
     8     1     2    1
     9     2     3    1
    10     3     4   ar
    11     4     5   ar
    12     5     6   ar
    13     6    10    1
    14    10    11   ar
    15    11    12   ar
    16    12    13   ar
    17    13    14    1
    18    13    15   ar
    19    15    16   ar
    20     6     7   ar
    21     7     8   ar
    22     8     9    1
    23     9     1    1
    24     8     3   ar
    25    16    10   ar
    26    17    18    1
@<TRIPOS>MOLECULE
*****
 24 26 0 0 0
SMALL
GASTEIGER

@<TRIPOS>ATOM
      1 C          63.8871   89.1805   14.7279 C.3     1  UNL1        0.0838
      2 C          63.0360   89.2344   13.4939 C.3     1  UNL1        0.0437
      3 C          63.5970   90.2918   12.5898 C.ar    1  UNL1       -0.0247
      4 C          63.1718   90.7860   11.2389 C.ar    1  UNL1       -0.0045
      5 C          63.9444   91.8799   10.5633 C.ar    1  UNL1       -0.0003
      6 C          65.1422   92.4794   11.2385 C.ar    1  UNL1        0.0012
      7 C          65.5673   91.9852   12.5894 C.ar    1  UNL1       -0.0045
      8 C          64.7947   90.8913   13.2650 C.ar    1  UNL1       -0.0247
      9 C          64.9740   90.2045   14.5865 C.3     1  UNL1        0.0437
     10 C          65.9148   93.5734   10.5628 C.ar    1  UNL1        0.0193
     11 C          67.1285   93.2405    9.7467 C.ar    1  UNL1        0.0055
     12 C          67.9011   94.3344    9.0709 C.ar    1  UNL1        0.0497
     13 C          67.4599   95.7611    9.2114 C.ar    1  UNL1        0.2223
     14 F          68.2325   96.8550    8.5357 F       1  UNL1       -0.1832
     15 N          66.2462   96.0940   10.0276 N.ar    1  UNL1       -0.2165
     16 C          65.4736   95.0001   10.7032 C.ar    1  UNL1        0.1012
     17 N          63.6865   88.2636   15.8980 N.3     1  UNL1       -0.1841
     18 H          64.4326   88.4673   16.5630 H       1  UNL1        0.1484
     19 S          63.6819   86.7776   15.6941 S.O2    1  UNL1        0.0390
     20 O          62.5172   86.6526   16.6311 O.2     1  UNL1       -0.1576
     21 O          64.8465   86.9025   14.7572 O.2     1  UNL1       -0.1576
     22 C          62.5686   84.4593   16.0633 C.3     1  UNL1        0.0270
     23 C          63.6772   85.2914   15.4903 C.3     1  UNL1        0.1457
     24 C          64.7813   84.6375   14.7135 C.3     1  UNL1        0.0270
@<TRIPOS>BOND
     1    22    23    1
     2    23    24    1
     3    23    19    1
     4    19    20    2
     5    19    21    2
     6    19    17    1
     7     1    17    1
     8     1     2    1
     9     2     3    1
    10     3     4   ar
    11     4     5   ar
    12     5     6   ar
    13     6    10    1
    14    10    11   ar
    15    11    12   ar
    16    12    13   ar
    17    13    14    1
    18    13    15   ar
    19    15    16   ar
    20     6     7   ar
    21     7     8   ar
    22     8     9    1
    23     9     1    1
    24     8     3   ar
    25    16    10   ar
    26    17    18    1
@<TRIPOS>MOLECULE
*****
 24 26 0 0 0
SMALL
GASTEIGER

@<TRIPOS>ATOM
      1 C          63.3226   84.4744   14.4340 C.3     1  UNL1        0.0838
      2 C          62.7087   85.0748   13.2042 C.3     1  UNL1        0.0437
      3 C          63.1412   86.5088   13.1229 C.ar    1  UNL1       -0.0247
      4 C          62.8465   87.5911   12.1272 C.ar    1  UNL1       -0.0045
      5 C          63.4330   88.9594   12.3111 C.ar    1  UNL1       -0.0003
      6 C          64.3142   89.2453   13.4909 C.ar    1  UNL1        0.0012
      7 C          64.6089   88.1629   14.4866 C.ar    1  UNL1       -0.0045
      8 C          64.0224   86.7947   14.3026 C.ar    1  UNL1       -0.0247
      9 C          64.1345   85.5373   15.1129 C.3     1  UNL1        0.0437
     10 C          64.9007   90.6136   13.6748 C.ar    1  UNL1        0.0193
     11 C          65.6132   90.9592   14.9487 C.ar    1  UNL1        0.0055
     12 C          66.1997   92.3275   15.1326 C.ar    1  UNL1        0.0497
     13 C          66.0736   93.3502   14.0426 C.ar    1  UNL1        0.2223
     14 F          66.6601   94.7185   14.2265 F       1  UNL1       -0.1832
     15 N          65.3610   93.0046   12.7687 N.ar    1  UNL1       -0.2165
     16 C          64.7746   91.6363   12.5848 C.ar    1  UNL1        0.1012
     17 N          63.1542   83.0595   14.9027 N.3     1  UNL1       -0.1841
     18 H          63.9997   82.8179   15.4196 H       1  UNL1        0.1484
     19 S          62.9270   81.9614   13.9065 S.O2    1  UNL1        0.0390
     20 O          61.5614   81.7238   14.4798 O.2     1  UNL1       -0.1576
     21 O          64.2926   82.1990   13.3332 O.2     1  UNL1       -0.1576
     22 C          62.1482   79.5434   13.3615 C.3     1  UNL1        0.0270
     23 C          62.6998   80.8632   12.9102 C.3     1  UNL1        0.1457
     24 C          63.0243   81.0850   11.4626 C.3     1  UNL1        0.0270
@<TRIPOS>BOND
     1    22    23    1
     2    23    24    1
     3    23    19    1
     4    19    20    2
     5    19    21    2
     6    19    17    1
     7     1    17    1
     8     1     2    1
     9     2     3    1
    10     3     4   ar
    11     4     5   ar
    12     5     6   ar
    13     6    10    1
    14    10    11   ar
    15    11    12   ar
    16    12    13   ar
    17    13    14    1
    18    13    15   ar
    19    15    16   ar
    20     6     7   ar
    21     7     8   ar
    22     8     9    1
    23     9     1    1
    24     8     3   ar
    25    16    10   ar
    26    17    18    1
@<TRIPOS>MOLECULE
*****
 24 26 0 0 0
SMALL
GASTEIGER

@<TRIPOS>ATOM
      1 C          63.9210   84.2236   15.3509 C.3     1  UNL1        0.0838
      2 C          63.1629   85.0450   16.3511 C.3     1  UNL1        0.0437
      3 C          63.4266   86.4922   16.0578 C.ar    1  UNL1       -0.0247
      4 C          62.9470   87.7529   16.7139 C.ar    1  UNL1       -0.0045
      5 C          63.3886   89.0866   16.1885 C.ar    1  UNL1       -0.0003
      6 C          64.3098   89.1597   15.0069 C.ar    1  UNL1        0.0012
      7 C          64.7894   87.8990   14.3508 C.ar    1  UNL1       -0.0045
      8 C          64.3478   86.5652   14.8762 C.ar    1  UNL1       -0.0247
      9 C          64.6534   85.1632   14.4394 C.3     1  UNL1        0.0437
     10 C          64.7514   90.4935   14.4815 C.ar    1  UNL1        0.0193
     11 C          64.8204   90.7313   13.0021 C.ar    1  UNL1        0.0055
     12 C          65.2620   92.0652   12.4767 C.ar    1  UNL1        0.0497
     13 C          65.6345   93.1611   13.4307 C.ar    1  UNL1        0.2223
     14 F          66.0761   94.4949   12.9054 F       1  UNL1       -0.1832
     15 N          65.5655   92.9232   14.9102 N.ar    1  UNL1       -0.2165
     16 C          65.1239   91.5894   15.4355 C.ar    1  UNL1        0.1012
     17 N          63.9430   82.7256   15.2755 N.3     1  UNL1       -0.1841
     18 H          64.8941   82.4575   15.0225 H       1  UNL1        0.1484
     19 S          63.0251   82.0088   14.3303 S.O2    1  UNL1        0.0390
     20 O          63.2907   80.7198   15.0499 O.2     1  UNL1       -0.1576
     21 O          62.7595   83.2977   13.6106 O.2     1  UNL1       -0.1576
     22 C          62.5025   81.1087   11.9497 C.3     1  UNL1        0.0270
     23 C          62.1071   81.2918   13.3850 C.3     1  UNL1        0.1457
     24 C          60.7938   80.7580   13.8752 C.3     1  UNL1        0.0270
@<TRIPOS>BOND
     1    22    23    1
     2    23    24    1
     3    23    19    1
     4    19    20    2
     5    19    21    2
     6    19    17    1
     7     1    17    1
     8     1     2    1
     9     2     3    1
    10     3     4   ar
    11     4     5   ar
    12     5     6   ar
    13     6    10    1
    14    10    11   ar
    15    11    12   ar
    16    12    13   ar
    17    13    14    1
    18    13    15   ar
    19    15    16   ar
    20     6     7   ar
    21     7     8   ar
    22     8     9    1
    23     9     1    1
    24     8     3   ar
    25    16    10   ar
    26    17    18    1
@<TRIPOS>MOLECULE
*****
 24 26 0 0 0
SMALL
GASTEIGER

@<TRIPOS>ATOM
      1 C          63.7676   87.0263   14.4459 C.3     1  UNL1        0.0838
      2 C          63.0777   87.2797   13.1383 C.3     1  UNL1        0.0437
      3 C          63.4819   88.6417   12.6572 C.ar    1  UNL1       -0.0247
      4 C          63.1157   89.4221   11.4297 C.ar    1  UNL1       -0.0045
      5 C          63.6893   90.7909   11.2124 C.ar    1  UNL1       -0.0003
      6 C          64.6290   91.3794   12.2227 C.ar    1  UNL1        0.0012
      7 C          64.9952   90.5990   13.4502 C.ar    1  UNL1       -0.0045
      8 C          64.4217   89.2301   13.6674 C.ar    1  UNL1       -0.0247
      9 C          64.5982   88.2318   14.7729 C.3     1  UNL1        0.0437
     10 C          65.2026   92.7483   12.0054 C.ar    1  UNL1        0.0193
     11 C          65.0331   93.4309   10.6805 C.ar    1  UNL1        0.0055
     12 C          65.6066   94.7998   10.4632 C.ar    1  UNL1        0.0497
     13 C          66.3497   95.4861   11.5708 C.ar    1  UNL1        0.2223
     14 F          66.9232   96.8549   11.3535 F       1  UNL1       -0.1832
     15 N          66.5192   94.8035   12.8957 N.ar    1  UNL1       -0.2165
     16 C          65.9456   93.4346   13.1130 C.ar    1  UNL1        0.1012
     17 N          63.6479   85.7854   15.2801 N.3     1  UNL1       -0.1841
     18 H          64.5047   85.7158   15.8290 H       1  UNL1        0.1484
     19 S          63.4476   84.4539   14.6192 S.O2    1  UNL1        0.0390
     20 O          61.9976   84.4820   15.0018 O.2     1  UNL1       -0.1576
     21 O          64.8977   84.4257   14.2366 O.2     1  UNL1       -0.1576
     22 C          62.1454   82.2146   14.4186 C.3     1  UNL1        0.0270
     23 C          63.2474   83.1222   13.9583 C.3     1  UNL1        0.1457
     24 C          64.1490   82.6983   12.8370 C.3     1  UNL1        0.0270
@<TRIPOS>BOND
     1    22    23    1
     2    23    24    1
     3    23    19    1
     4    19    20    2
     5    19    21    2
     6    19    17    1
     7     1    17    1
     8     1     2    1
     9     2     3    1
    10     3     4   ar
    11     4     5   ar
    12     5     6   ar
    13     6    10    1
    14    10    11   ar
    15    11    12   ar
    16    12    13   ar
    17    13    14    1
    18    13    15   ar
    19    15    16   ar
    20     6     7   ar
    21     7     8   ar
    22     8     9    1
    23     9     1    1
    24     8     3   ar
    25    16    10   ar
    26    17    18    1
