@<TRIPOS>MOLECULE
*****
 32 35 0 0 0
SMALL
GASTEIGER

@<TRIPOS>ATOM
      1 N          62.1416   87.4453   10.9061 N.3     1  UNL1       -0.2679
      2 C          62.6830   88.8313   11.0954 C.3     1  UNL1        0.0978
      3 C          62.5239   89.8535   10.0093 C.3     1  UNL1        0.0224
      4 C          63.0654   91.2395   10.1986 C.3     1  UNL1        0.0065
      5 C          63.7660   91.6032   11.4741 C.3     1  UNL1        0.0277
      6 C          63.9251   90.5810   12.5602 C.ar    1  UNL1       -0.0073
      7 C          64.6257   90.9448   13.8357 C.ar    1  UNL1       -0.0015
      8 C          64.7848   89.9225   14.9218 C.ar    1  UNL1        0.0203
      9 C          64.2434   88.5365   14.7325 C.ar    1  UNL1        0.0985
     10 N          63.5428   88.1728   13.4570 N.ar    1  UNL1       -0.2471
     11 C          63.3836   89.1950   12.3708 C.ar    1  UNL1        0.0695
     12 C          60.6637   87.2300   10.7667 C.3     1  UNL1        0.0724
     13 C          59.4260   88.7757   10.0057 C.3     1  UNL1        0.0014
     14 C          59.9871   87.4982    9.4551 C.3     1  UNL1        0.0161
     15 C          60.5482   86.2207    8.9045 C.3     1  UNL1        0.0014
     16 C          59.3105   87.7664    8.1435 C.3     1  UNL1        0.0182
     17 C          59.6228   89.0198    7.3810 C.3     1  UNL1        0.0652
     18 N          58.7450   89.4421    6.2403 N.3     1  UNL1       -0.3211
     19 H          58.8174   88.7603    5.4851 H       1  UNL1        0.1189
     20 H          59.0434   90.3570    5.9022 H       1  UNL1        0.1189
     21 C          63.0780   86.2746   10.8561 C.3     1  UNL1        0.0886
     22 C          62.8477   85.0913   11.7488 C.3     1  UNL1        0.0748
     23 C          62.9544   83.7016   11.1946 C.3     1  UNL1        0.0432
     24 C          62.7241   82.5183   12.0873 C.ar    1  UNL1       -0.0234
     25 C          62.8308   81.1286   11.5330 C.ar    1  UNL1       -0.0045
     26 C          62.6006   79.9454   12.4257 C.ar    1  UNL1       -0.0003
     27 C          62.2635   80.1519   13.8727 C.ar    1  UNL1       -0.0003
     28 C          62.1568   81.5416   14.4270 C.ar    1  UNL1       -0.0032
     29 C          62.3871   82.7248   13.5343 C.ar    1  UNL1       -0.0103
     30 C          62.2803   84.1146   14.0885 C.3     1  UNL1        0.0953
     31 N          62.5106   85.2978   13.1958 N.3     1  UNL1       -0.2934
     32 H          63.2793   85.8296   13.6042 H       1  UNL1        0.1236
@<TRIPOS>BOND
     1    13    14    1
     2    14    15    1
     3    14    16    1
     4    16    17    1
     5    17    18    1
     6    14    12    1
     7    12     1    1
     8     1    21    1
     9    22    21    1
    10    22    23    1
    11    23    24    1
    12    24    25   ar
    13    25    26   ar
    14    26    27   ar
    15    27    28   ar
    16    28    29   ar
    17    29    30    1
    18    30    31    1
    19     2     1    1
    20     2     3    1
    21     3     4    1
    22     4     5    1
    23     5     6    1
    24     6     7   ar
    25     7     8   ar
    26     8     9   ar
    27     9    10   ar
    28    10    11   ar
    29    31    22    1
    30    11     2    1
    31    29    24   ar
    32    11     6   ar
    33    18    19    1
    34    18    20    1
    35    31    32    1
@<TRIPOS>MOLECULE
*****
 32 35 0 0 0
SMALL
GASTEIGER

@<TRIPOS>ATOM
      1 N          63.8315   90.1381   13.4688 N.3     1  UNL1       -0.2679
      2 C          64.5823   91.2956   12.8801 C.3     1  UNL1        0.0978
      3 C          64.3770   91.6694   11.4420 C.3     1  UNL1        0.0224
      4 C          65.1277   92.8269   10.8534 C.3     1  UNL1        0.0065
      5 C          66.0838   93.6107   11.7028 C.3     1  UNL1        0.0277
      6 C          66.2890   93.2370   13.1409 C.ar    1  UNL1       -0.0073
      7 C          67.2451   94.0208   13.9905 C.ar    1  UNL1       -0.0015
      8 C          67.4504   93.6471   15.4285 C.ar    1  UNL1        0.0203
      9 C          66.6996   92.4896   16.0172 C.ar    1  UNL1        0.0985
     10 N          65.7436   91.7058   15.1678 N.ar    1  UNL1       -0.2471
     11 C          65.5383   92.0794   13.7296 C.ar    1  UNL1        0.0695
     12 C          64.5183   89.2055   14.4220 C.3     1  UNL1        0.0724
     13 C          64.1196   87.2808   15.2198 C.3     1  UNL1        0.0014
     14 C          63.7845   88.6863   15.6228 C.3     1  UNL1        0.0161
     15 C          63.4495   90.0917   16.0259 C.3     1  UNL1        0.0014
     16 C          63.0508   88.1670   16.8236 C.3     1  UNL1        0.0182
     17 C          62.9278   86.6886   17.0460 C.3     1  UNL1        0.0652
     18 N          61.5731   86.0641   17.2037 N.3     1  UNL1       -0.3211
     19 H          61.1406   86.4026   18.0633 H       1  UNL1        0.1189
     20 H          61.6695   85.0496   17.2483 H       1  UNL1        0.1189
     21 C          62.3940   89.9131   13.1042 C.3     1  UNL1        0.0886
     22 C          62.0393   88.9467   12.0132 C.3     1  UNL1        0.0748
     23 C          61.1354   89.3757   10.8958 C.3     1  UNL1        0.0432
     24 C          60.7807   88.4093    9.8048 C.ar    1  UNL1       -0.0234
     25 C          59.8767   88.8383    8.6874 C.ar    1  UNL1       -0.0045
     26 C          59.5220   87.8719    7.5965 C.ar    1  UNL1       -0.0003
     27 C          60.0714   86.4763    7.6230 C.ar    1  UNL1       -0.0003
     28 C          60.9753   86.0472    8.7404 C.ar    1  UNL1       -0.0032
     29 C          61.3300   87.0137    9.8313 C.ar    1  UNL1       -0.0103
     30 C          62.2340   86.5847   10.9488 C.3     1  UNL1        0.0953
     31 N          62.5886   87.5511   12.0398 N.3     1  UNL1       -0.2934
     32 H          63.6052   87.6348   12.0400 H       1  UNL1        0.1236
@<TRIPOS>BOND
     1    13    14    1
     2    14    15    1
     3    14    16    1
     4    16    17    1
     5    17    18    1
     6    14    12    1
     7    12     1    1
     8     1    21    1
     9    22    21    1
    10    22    23    1
    11    23    24    1
    12    24    25   ar
    13    25    26   ar
    14    26    27   ar
    15    27    28   ar
    16    28    29   ar
    17    29    30    1
    18    30    31    1
    19     2     1    1
    20     2     3    1
    21     3     4    1
    22     4     5    1
    23     5     6    1
    24     6     7   ar
    25     7     8   ar
    26     8     9   ar
    27     9    10   ar
    28    10    11   ar
    29    31    22    1
    30    11     2    1
    31    29    24   ar
    32    11     6   ar
    33    18    19    1
    34    18    20    1
    35    31    32    1
@<TRIPOS>MOLECULE
*****
 32 35 0 0 0
SMALL
GASTEIGER

@<TRIPOS>ATOM
      1 N          61.0085   87.4908   10.6190 N.3     1  UNL1       -0.2679
      2 C          61.8960   86.3880   10.1228 C.3     1  UNL1        0.0978
      3 C          62.2519   86.3089    8.6678 C.3     1  UNL1        0.0224
      4 C          63.1393   85.2061    8.1716 C.3     1  UNL1        0.0065
      5 C          63.6710   84.1824    9.1304 C.3     1  UNL1        0.0277
      6 C          63.3151   84.2615   10.5854 C.ar    1  UNL1       -0.0073
      7 C          63.8468   83.2378   11.5443 C.ar    1  UNL1       -0.0015
      8 C          63.4909   83.3169   12.9993 C.ar    1  UNL1        0.0203
      9 C          62.6034   84.4196   13.4955 C.ar    1  UNL1        0.0985
     10 N          62.0718   85.4433   12.5367 N.ar    1  UNL1       -0.2471
     11 C          62.4276   85.3643   11.0816 C.ar    1  UNL1        0.0695
     12 C          59.6898   87.7494    9.9527 C.3     1  UNL1        0.0724
     13 C          60.2421   89.4313    8.7839 C.3     1  UNL1        0.0014
     14 C          59.6410   88.0883    8.4923 C.3     1  UNL1        0.0161
     15 C          59.0399   86.7453    8.2007 C.3     1  UNL1        0.0014
     16 C          59.5922   88.4273    7.0319 C.3     1  UNL1        0.0182
     17 C          59.0316   89.7453    6.5862 C.3     1  UNL1        0.0652
     18 N          59.7608   90.5623    5.5612 N.3     1  UNL1       -0.3211
     19 H          60.6507   90.8772    5.9476 H       1  UNL1        0.1189
     20 H          59.1951   91.3720    5.3066 H       1  UNL1        0.1189
     21 C          61.4398   88.3349   11.7815 C.3     1  UNL1        0.0886
     22 C          62.3992   89.4685   11.5701 C.3     1  UNL1        0.0748
     23 C          63.2945   89.9118   12.6890 C.3     1  UNL1        0.0432
     24 C          64.2539   91.0454   12.4776 C.ar    1  UNL1       -0.0234
     25 C          65.1492   91.4887   13.5965 C.ar    1  UNL1       -0.0045
     26 C          66.1085   92.6222   13.3851 C.ar    1  UNL1       -0.0003
     27 C          66.1726   93.3125   12.0549 C.ar    1  UNL1       -0.0003
     28 C          65.2772   92.8692   10.9361 C.ar    1  UNL1       -0.0032
     29 C          64.3179   91.7357   11.1474 C.ar    1  UNL1       -0.0103
     30 C          63.4225   91.2923   10.0286 C.3     1  UNL1        0.0953
     31 N          62.4632   90.1588   10.2399 N.3     1  UNL1       -0.2934
     32 H          62.6938   89.4451    9.5486 H       1  UNL1        0.1236
@<TRIPOS>BOND
     1    13    14    1
     2    14    15    1
     3    14    16    1
     4    16    17    1
     5    17    18    1
     6    14    12    1
     7    12     1    1
     8     1    21    1
     9    22    21    1
    10    22    23    1
    11    23    24    1
    12    24    25   ar
    13    25    26   ar
    14    26    27   ar
    15    27    28   ar
    16    28    29   ar
    17    29    30    1
    18    30    31    1
    19     2     1    1
    20     2     3    1
    21     3     4    1
    22     4     5    1
    23     5     6    1
    24     6     7   ar
    25     7     8   ar
    26     8     9   ar
    27     9    10   ar
    28    10    11   ar
    29    31    22    1
    30    11     2    1
    31    29    24   ar
    32    11     6   ar
    33    18    19    1
    34    18    20    1
    35    31    32    1
@<TRIPOS>MOLECULE
*****
 32 35 0 0 0
SMALL
GASTEIGER

@<TRIPOS>ATOM
      1 N          63.4233   83.8609   13.4392 N.3     1  UNL1       -0.2679
      2 C          63.4456   84.0097   11.9468 C.3     1  UNL1        0.0978
      3 C          64.2905   83.0917   11.1141 C.3     1  UNL1        0.0224
      4 C          64.3128   83.2404    9.6217 C.3     1  UNL1        0.0065
      5 C          63.4902   84.3072    8.9619 C.3     1  UNL1        0.0277
      6 C          62.6453   85.2252    9.7946 C.ar    1  UNL1       -0.0073
      7 C          61.8226   86.2920    9.1348 C.ar    1  UNL1       -0.0015
      8 C          60.9777   87.2100    9.9675 C.ar    1  UNL1        0.0203
      9 C          60.9554   87.0612   11.4599 C.ar    1  UNL1        0.0985
     10 N          61.7780   85.9945   12.1197 N.ar    1  UNL1       -0.2471
     11 C          62.6230   85.0764   11.2870 C.ar    1  UNL1        0.0695
     12 C          62.3732   83.0124   14.0928 C.3     1  UNL1        0.0724
     13 C          60.9686   81.4357   13.8901 C.3     1  UNL1        0.0014
     14 C          62.4612   81.5171   14.0143 C.3     1  UNL1        0.0161
     15 C          63.9539   81.5985   14.1384 C.3     1  UNL1        0.0014
     16 C          62.5493   80.0217   13.9358 C.3     1  UNL1        0.0182
     17 C          62.4099   79.3307   12.6117 C.3     1  UNL1        0.0652
     18 N          62.8668   80.0143   11.3572 N.3     1  UNL1       -0.3211
     19 H          62.2838   80.8332   11.1845 H       1  UNL1        0.1189
     20 H          62.7886   79.3694   10.5708 H       1  UNL1        0.1189
     21 C          64.4512   84.5607   14.2781 C.3     1  UNL1        0.0886
     22 C          64.1201   85.8686   14.9339 C.3     1  UNL1        0.0748
     23 C          64.5573   87.1565   14.3014 C.3     1  UNL1        0.0432
     24 C          64.2262   88.4644   14.9571 C.ar    1  UNL1       -0.0234
     25 C          64.6634   89.7523   14.3247 C.ar    1  UNL1       -0.0045
     26 C          64.3323   91.0601   14.9804 C.ar    1  UNL1       -0.0003
     27 C          63.5641   91.0800   16.2686 C.ar    1  UNL1       -0.0003
     28 C          63.1270   89.7920   16.9011 C.ar    1  UNL1       -0.0032
     29 C          63.4580   88.4842   16.2454 C.ar    1  UNL1       -0.0103
     30 C          63.0209   87.1962   16.8778 C.3     1  UNL1        0.0953
     31 N          63.3519   85.8884   16.2221 N.3     1  UNL1       -0.2934
     32 H          62.4658   85.4158   16.0438 H       1  UNL1        0.1236
@<TRIPOS>BOND
     1    13    14    1
     2    14    15    1
     3    14    16    1
     4    16    17    1
     5    17    18    1
     6    14    12    1
     7    12     1    1
     8     1    21    1
     9    22    21    1
    10    22    23    1
    11    23    24    1
    12    24    25   ar
    13    25    26   ar
    14    26    27   ar
    15    27    28   ar
    16    28    29   ar
    17    29    30    1
    18    30    31    1
    19     2     1    1
    20     2     3    1
    21     3     4    1
    22     4     5    1
    23     5     6    1
    24     6     7   ar
    25     7     8   ar
    26     8     9   ar
    27     9    10   ar
    28    10    11   ar
    29    31    22    1
    30    11     2    1
    31    29    24   ar
    32    11     6   ar
    33    18    19    1
    34    18    20    1
    35    31    32    1
@<TRIPOS>MOLECULE
*****
 32 35 0 0 0
SMALL
GASTEIGER

@<TRIPOS>ATOM
      1 N          62.4829   86.1264   10.6382 N.3     1  UNL1       -0.2679
      2 C          63.0126   84.7635   10.9726 C.3     1  UNL1        0.0978
      3 C          63.6178   83.9096    9.8980 C.3     1  UNL1        0.0224
      4 C          64.1475   82.5467   10.2324 C.3     1  UNL1        0.0065
      5 C          64.0721   82.0376   11.6413 C.3     1  UNL1        0.0277
      6 C          63.4669   82.8915   12.7159 C.ar    1  UNL1       -0.0073
      7 C          63.3915   82.3824   14.1249 C.ar    1  UNL1       -0.0015
      8 C          62.7863   83.2363   15.1994 C.ar    1  UNL1        0.0203
      9 C          62.2566   84.5992   14.8650 C.ar    1  UNL1        0.0985
     10 N          62.3320   85.1083   13.4561 N.ar    1  UNL1       -0.2471
     11 C          62.9372   84.2544   12.3815 C.ar    1  UNL1        0.0695
     12 C          62.3433   86.5459    9.2048 C.3     1  UNL1        0.0724
     13 C          61.8268   85.5121    7.4260 C.3     1  UNL1        0.0014
     14 C          61.0654   86.2790    8.4662 C.3     1  UNL1        0.0161
     15 C          60.3040   87.0459    9.5065 C.3     1  UNL1        0.0014
     16 C          59.7874   86.0120    7.7276 C.3     1  UNL1        0.0182
     17 C          58.7033   87.0485    7.7057 C.3     1  UNL1        0.0652
     18 N          58.9186   88.3438    6.9805 N.3     1  UNL1       -0.3211
     19 H          59.6540   88.8758    7.4458 H       1  UNL1        0.1189
     20 H          58.0534   88.8839    6.9850 H       1  UNL1        0.1189
     21 C          62.0927   87.0698   11.7371 C.3     1  UNL1        0.0886
     22 C          62.7915   88.3899   11.8757 C.3     1  UNL1        0.0748
     23 C          63.6178   88.6768   13.0942 C.3     1  UNL1        0.0432
     24 C          64.3165   89.9969   13.2328 C.ar    1  UNL1       -0.0234
     25 C          65.1429   90.2838   14.4513 C.ar    1  UNL1       -0.0045
     26 C          65.8416   91.6039   14.5899 C.ar    1  UNL1       -0.0003
     27 C          65.7140   92.6370   13.5099 C.ar    1  UNL1       -0.0003
     28 C          64.8876   92.3501   12.2914 C.ar    1  UNL1       -0.0032
     29 C          64.1889   91.0300   12.1528 C.ar    1  UNL1       -0.0103
     30 C          63.3625   90.7431   10.9343 C.3     1  UNL1        0.0953
     31 N          62.6638   89.4230   10.7957 N.3     1  UNL1       -0.2934
     32 H          63.0099   88.9954    9.9368 H       1  UNL1        0.1236
@<TRIPOS>BOND
     1    13    14    1
     2    14    15    1
     3    14    16    1
     4    16    17    1
     5    17    18    1
     6    14    12    1
     7    12     1    1
     8     1    21    1
     9    22    21    1
    10    22    23    1
    11    23    24    1
    12    24    25   ar
    13    25    26   ar
    14    26    27   ar
    15    27    28   ar
    16    28    29   ar
    17    29    30    1
    18    30    31    1
    19     2     1    1
    20     2     3    1
    21     3     4    1
    22     4     5    1
    23     5     6    1
    24     6     7   ar
    25     7     8   ar
    26     8     9   ar
    27     9    10   ar
    28    10    11   ar
    29    31    22    1
    30    11     2    1
    31    29    24   ar
    32    11     6   ar
    33    18    19    1
    34    18    20    1
    35    31    32    1
@<TRIPOS>MOLECULE
*****
 32 35 0 0 0
SMALL
GASTEIGER

@<TRIPOS>ATOM
      1 N          63.0871   85.3135   12.8678 N.3     1  UNL1       -0.2679
      2 C          63.3016   84.0750   12.0491 C.3     1  UNL1        0.0978
      3 C          63.9885   84.1650   10.7187 C.3     1  UNL1        0.0224
      4 C          64.2029   82.9265    9.9001 C.3     1  UNL1        0.0065
      5 C          63.7305   81.5980   10.4119 C.3     1  UNL1        0.0277
      6 C          63.0437   81.5081   11.7423 C.ar    1  UNL1       -0.0073
      7 C          62.5712   80.1796   12.2542 C.ar    1  UNL1       -0.0015
      8 C          61.8843   80.0896   13.5846 C.ar    1  UNL1        0.0203
      9 C          61.6699   81.3281   14.4032 C.ar    1  UNL1        0.0985
     10 N          62.1423   82.6565   13.8914 N.ar    1  UNL1       -0.2471
     11 C          62.8292   82.7466   12.5609 C.ar    1  UNL1        0.0695
     12 C          62.0251   86.2974   12.4753 C.3     1  UNL1        0.0724
     13 C          62.8375   88.0680   11.6357 C.3     1  UNL1        0.0014
     14 C          62.0409   86.9121   11.1071 C.3     1  UNL1        0.0161
     15 C          61.2443   85.7562   10.5786 C.3     1  UNL1        0.0014
     16 C          62.0567   87.5269    9.7390 C.3     1  UNL1        0.0182
     17 C          60.8042   88.1264    9.1716 C.3     1  UNL1        0.0652
     18 N          60.6521   89.6170    9.0998 N.3     1  UNL1       -0.3211
     19 H          60.6124   90.0006   10.0441 H       1  UNL1        0.1189
     20 H          59.7916   89.8473    8.6028 H       1  UNL1        0.1189
     21 C          63.9346   85.5681   14.0789 C.3     1  UNL1        0.0886
     22 C          63.8653   86.8936   14.7777 C.3     1  UNL1        0.0748
     23 C          64.5534   88.0891   14.1884 C.3     1  UNL1        0.0432
     24 C          64.4841   89.4146   14.8872 C.ar    1  UNL1       -0.0234
     25 C          65.1722   90.6100   14.2979 C.ar    1  UNL1       -0.0045
     26 C          65.1028   91.9355   14.9967 C.ar    1  UNL1       -0.0003
     27 C          64.3452   92.0655   16.2848 C.ar    1  UNL1       -0.0003
     28 C          63.6571   90.8700   16.8741 C.ar    1  UNL1       -0.0032
     29 C          63.7265   89.5446   16.1753 C.ar    1  UNL1       -0.0103
     30 C          63.0383   88.3491   16.7646 C.3     1  UNL1        0.0953
     31 N          63.1077   87.0236   16.0658 N.3     1  UNL1       -0.2934
     32 H          62.1466   86.7424   15.8718 H       1  UNL1        0.1236
@<TRIPOS>BOND
     1    13    14    1
     2    14    15    1
     3    14    16    1
     4    16    17    1
     5    17    18    1
     6    14    12    1
     7    12     1    1
     8     1    21    1
     9    22    21    1
    10    22    23    1
    11    23    24    1
    12    24    25   ar
    13    25    26   ar
    14    26    27   ar
    15    27    28   ar
    16    28    29   ar
    17    29    30    1
    18    30    31    1
    19     2     1    1
    20     2     3    1
    21     3     4    1
    22     4     5    1
    23     5     6    1
    24     6     7   ar
    25     7     8   ar
    26     8     9   ar
    27     9    10   ar
    28    10    11   ar
    29    31    22    1
    30    11     2    1
    31    29    24   ar
    32    11     6   ar
    33    18    19    1
    34    18    20    1
    35    31    32    1
@<TRIPOS>MOLECULE
*****
 32 35 0 0 0
SMALL
GASTEIGER

@<TRIPOS>ATOM
      1 N          62.0241   87.5876   11.1187 N.3     1  UNL1       -0.2679
      2 C          61.0888   87.2651    9.9913 C.3     1  UNL1        0.0978
      3 C          59.7075   87.8496    9.9721 C.3     1  UNL1        0.0224
      4 C          58.7722   87.5270    8.8447 C.3     1  UNL1        0.0065
      5 C          59.2181   86.6200    7.7364 C.3     1  UNL1        0.0277
      6 C          60.5994   86.0354    7.7556 C.ar    1  UNL1       -0.0073
      7 C          61.0454   85.1283    6.6473 C.ar    1  UNL1       -0.0015
      8 C          62.4266   84.5438    6.6664 C.ar    1  UNL1        0.0203
      9 C          63.3620   84.8664    7.7939 C.ar    1  UNL1        0.0985
     10 N          62.9160   85.7734    8.9021 N.ar    1  UNL1       -0.2471
     11 C          61.5347   86.3580    8.8830 C.ar    1  UNL1        0.0695
     12 C          61.8321   88.8432   11.9166 C.3     1  UNL1        0.0724
     13 C          62.4059   90.2735   10.4589 C.3     1  UNL1        0.0014
     14 C          62.8554   89.9379   11.8501 C.3     1  UNL1        0.0161
     15 C          63.3048   89.6024   13.2413 C.3     1  UNL1        0.0014
     16 C          63.8787   91.0327   11.7835 C.3     1  UNL1        0.0182
     17 C          64.6190   91.4436   13.0218 C.3     1  UNL1        0.0652
     18 N          65.3718   92.7407   13.0498 N.3     1  UNL1       -0.3211
     19 H          66.1503   92.6963   12.3923 H       1  UNL1        0.1189
     20 H          65.7301   92.9056   13.9904 H       1  UNL1        0.1189
     21 C          63.1514   86.6546   11.4483 C.3     1  UNL1        0.0886
     22 C          62.8763   85.3758   12.1825 C.3     1  UNL1        0.0748
     23 C          63.0255   84.0598   11.4784 C.3     1  UNL1        0.0432
     24 C          62.7505   82.7809   12.2126 C.ar    1  UNL1       -0.0234
     25 C          62.8997   81.4649   11.5085 C.ar    1  UNL1       -0.0045
     26 C          62.6246   80.1861   12.2427 C.ar    1  UNL1       -0.0003
     27 C          62.2003   80.2234   13.6809 C.ar    1  UNL1       -0.0003
     28 C          62.0511   81.5394   14.3850 C.ar    1  UNL1       -0.0032
     29 C          62.3262   82.8182   13.6508 C.ar    1  UNL1       -0.0103
     30 C          62.1770   84.1343   14.3549 C.3     1  UNL1        0.0953
     31 N          62.4521   85.4130   13.6207 N.3     1  UNL1       -0.2934
     32 H          63.1913   85.8938   14.1334 H       1  UNL1        0.1236
@<TRIPOS>BOND
     1    13    14    1
     2    14    15    1
     3    14    16    1
     4    16    17    1
     5    17    18    1
     6    14    12    1
     7    12     1    1
     8     1    21    1
     9    22    21    1
    10    22    23    1
    11    23    24    1
    12    24    25   ar
    13    25    26   ar
    14    26    27   ar
    15    27    28   ar
    16    28    29   ar
    17    29    30    1
    18    30    31    1
    19     2     1    1
    20     2     3    1
    21     3     4    1
    22     4     5    1
    23     5     6    1
    24     6     7   ar
    25     7     8   ar
    26     8     9   ar
    27     9    10   ar
    28    10    11   ar
    29    31    22    1
    30    11     2    1
    31    29    24   ar
    32    11     6   ar
    33    18    19    1
    34    18    20    1
    35    31    32    1
@<TRIPOS>MOLECULE
*****
 32 35 0 0 0
SMALL
GASTEIGER

@<TRIPOS>ATOM
      1 N          63.5810   88.1488   13.4819 N.3     1  UNL1       -0.2679
      2 C          62.9170   87.3601   12.3924 C.3     1  UNL1        0.0978
      3 C          63.0414   85.8655   12.3659 C.3     1  UNL1        0.0224
      4 C          62.3775   85.0768   11.2764 C.3     1  UNL1        0.0065
      5 C          61.5891   85.7826   10.2133 C.3     1  UNL1        0.0277
      6 C          61.4647   87.2772   10.2397 C.ar    1  UNL1       -0.0073
      7 C          60.6764   87.9831    9.1766 C.ar    1  UNL1       -0.0015
      8 C          60.5520   89.4777    9.2030 C.ar    1  UNL1        0.0203
      9 C          61.2159   90.2664   10.2926 C.ar    1  UNL1        0.0985
     10 N          62.0042   89.5606   11.3557 N.ar    1  UNL1       -0.2471
     11 C          62.1287   88.0659   11.3293 C.ar    1  UNL1        0.0695
     12 C          64.5636   87.4820   14.3983 C.3     1  UNL1        0.0724
     13 C          64.9737   85.4091   14.5845 C.3     1  UNL1        0.0014
     14 C          64.1081   86.3892   15.3193 C.3     1  UNL1        0.0161
     15 C          63.2424   87.3693   16.0541 C.3     1  UNL1        0.0014
     16 C          63.6525   85.2964   16.2403 C.3     1  UNL1        0.0182
     17 C          62.4911   84.4279   15.8568 C.3     1  UNL1        0.0652
     18 N          62.7085   82.9745   15.5563 N.3     1  UNL1       -0.3211
     19 H          63.2758   82.8828   14.7136 H       1  UNL1        0.1189
     20 H          61.8076   82.5189   15.4109 H       1  UNL1        0.1189
     21 C          63.2623   89.6042   13.6551 C.3     1  UNL1        0.0886
     22 C          64.2444   90.5113   14.3354 C.3     1  UNL1        0.0748
     23 C          65.6111   90.7106   13.7503 C.3     1  UNL1        0.0432
     24 C          66.5932   91.6177   14.4306 C.ar    1  UNL1       -0.0234
     25 C          67.9599   91.8171   13.8455 C.ar    1  UNL1       -0.0045
     26 C          68.9419   92.7241   14.5257 C.ar    1  UNL1       -0.0003
     27 C          68.5573   93.4318   15.7911 C.ar    1  UNL1       -0.0003
     28 C          67.1906   93.2325   16.3762 C.ar    1  UNL1       -0.0032
     29 C          66.2085   92.3255   15.6959 C.ar    1  UNL1       -0.0103
     30 C          64.8417   92.1261   16.2810 C.3     1  UNL1        0.0953
     31 N          63.8597   91.2191   15.6007 N.3     1  UNL1       -0.2934
     32 H          63.0384   91.7838   15.3842 H       1  UNL1        0.1236
@<TRIPOS>BOND
     1    13    14    1
     2    14    15    1
     3    14    16    1
     4    16    17    1
     5    17    18    1
     6    14    12    1
     7    12     1    1
     8     1    21    1
     9    22    21    1
    10    22    23    1
    11    23    24    1
    12    24    25   ar
    13    25    26   ar
    14    26    27   ar
    15    27    28   ar
    16    28    29   ar
    17    29    30    1
    18    30    31    1
    19     2     1    1
    20     2     3    1
    21     3     4    1
    22     4     5    1
    23     5     6    1
    24     6     7   ar
    25     7     8   ar
    26     8     9   ar
    27     9    10   ar
    28    10    11   ar
    29    31    22    1
    30    11     2    1
    31    29    24   ar
    32    11     6   ar
    33    18    19    1
    34    18    20    1
    35    31    32    1
@<TRIPOS>MOLECULE
*****
 32 35 0 0 0
SMALL
GASTEIGER

@<TRIPOS>ATOM
      1 N          62.8350   86.0893   11.9363 N.3     1  UNL1       -0.2679
      2 C          62.5795   85.7303   10.5025 C.3     1  UNL1        0.0978
      3 C          63.4584   84.7301    9.8117 C.3     1  UNL1        0.0224
      4 C          63.2029   84.3711    8.3779 C.3     1  UNL1        0.0065
      5 C          62.0686   85.0122    7.6349 C.3     1  UNL1        0.0277
      6 C          61.1897   86.0124    8.3256 C.ar    1  UNL1       -0.0073
      7 C          60.0553   86.6536    7.5826 C.ar    1  UNL1       -0.0015
      8 C          59.1764   87.6538    8.2734 C.ar    1  UNL1        0.0203
      9 C          59.4319   88.0128    9.7072 C.ar    1  UNL1        0.0985
     10 N          60.5662   87.3717   10.4502 N.ar    1  UNL1       -0.2471
     11 C          61.4452   86.3714    9.7595 C.ar    1  UNL1        0.0695
     12 C          63.6928   85.2031   12.7900 C.3     1  UNL1        0.0724
     13 C          64.3722   85.8279   14.7000 C.3     1  UNL1        0.0014
     14 C          63.2931   84.9106   14.2058 C.3     1  UNL1        0.0161
     15 C          62.2140   83.9933   13.7117 C.3     1  UNL1        0.0014
     16 C          62.8933   84.6181   15.6217 C.3     1  UNL1        0.0182
     17 C          62.8935   85.7165   16.6433 C.3     1  UNL1        0.0652
     18 N          61.5946   86.2566   17.1640 N.3     1  UNL1       -0.3211
     19 H          61.0943   86.7257   16.4090 H       1  UNL1        0.1189
     20 H          61.7796   86.9223   17.9144 H       1  UNL1        0.1189
     21 C          62.2327   87.3345   12.5165 C.3     1  UNL1        0.0886
     22 C          62.9533   88.6443   12.3927 C.3     1  UNL1        0.0748
     23 C          63.8606   89.1081   13.4934 C.3     1  UNL1        0.0432
     24 C          64.5813   90.4178   13.3697 C.ar    1  UNL1       -0.0234
     25 C          65.4886   90.8816   14.4704 C.ar    1  UNL1       -0.0045
     26 C          66.2092   92.1913   14.3466 C.ar    1  UNL1       -0.0003
     27 C          66.0225   93.0372   13.1220 C.ar    1  UNL1       -0.0003
     28 C          65.1152   92.5734   12.0213 C.ar    1  UNL1       -0.0032
     29 C          64.3946   91.2637   12.1451 C.ar    1  UNL1       -0.0103
     30 C          63.4873   90.7999   11.0443 C.3     1  UNL1        0.0953
     31 N          62.7667   89.4902   11.1681 N.3     1  UNL1       -0.2934
     32 H          63.0512   88.9211   10.3709 H       1  UNL1        0.1236
@<TRIPOS>BOND
     1    13    14    1
     2    14    15    1
     3    14    16    1
     4    16    17    1
     5    17    18    1
     6    14    12    1
     7    12     1    1
     8     1    21    1
     9    22    21    1
    10    22    23    1
    11    23    24    1
    12    24    25   ar
    13    25    26   ar
    14    26    27   ar
    15    27    28   ar
    16    28    29   ar
    17    29    30    1
    18    30    31    1
    19     2     1    1
    20     2     3    1
    21     3     4    1
    22     4     5    1
    23     5     6    1
    24     6     7   ar
    25     7     8   ar
    26     8     9   ar
    27     9    10   ar
    28    10    11   ar
    29    31    22    1
    30    11     2    1
    31    29    24   ar
    32    11     6   ar
    33    18    19    1
    34    18    20    1
    35    31    32    1
