@<TRIPOS>MOLECULE
*****
 41 44 0 0 0
SMALL
GASTEIGER

@<TRIPOS>ATOM
      1 C          63.9714   89.2458   14.2110 C.3     1  UNL1        0.1139
      2 C          63.1280   89.0094   12.9933 C.ar    1  UNL1       -0.0029
      3 C          62.3204   90.1313   12.4110 C.ar    1  UNL1       -0.0026
      4 C          61.4770   89.8949   11.1932 C.ar    1  UNL1       -0.0003
      5 C          61.4412   88.5366   10.5579 C.ar    1  UNL1       -0.0000
      6 C          62.2488   87.4146   11.1402 C.ar    1  UNL1       -0.0003
      7 C          63.0921   87.6510   12.3579 C.ar    1  UNL1       -0.0026
      8 C          60.5978   88.3002    9.3402 C.ar    1  UNL1        0.0001
      9 C          59.9603   86.9608    9.1178 C.ar    1  UNL1        0.0000
     10 C          59.1169   86.7244    7.9001 C.ar    1  UNL1        0.0001
     11 C          58.9110   87.8275    6.9047 C.ar    1  UNL1        0.0045
     12 C          59.5485   89.1670    7.1270 C.ar    1  UNL1        0.0531
     13 C          60.3919   89.4034    8.3448 C.ar    1  UNL1        0.0045
     14 C          59.3426   90.2700    6.1317 C.2     1  UNL1        0.2427
     15 N          60.5239   90.9000    5.4552 N.am    1  UNL1       -0.3253
     16 O          57.9554   90.7431    5.8128 O.2     1  UNL1       -0.2704
     17 H          61.4344   90.5895    5.6645 H       1  UNL1        0.1453
     18 H          60.3888   91.6240    4.8019 H       1  UNL1        0.1453
     19 C          63.3304   91.0525   15.9646 C.3     1  UNL1        0.1152
     20 N          64.1219   90.6330   14.7613 N.am    1  UNL1       -0.2729
     21 C          65.0638   91.6008   14.1085 C.2     1  UNL1        0.2462
     22 O          65.2143   92.9880   14.6589 O.2     1  UNL1       -0.2730
     23 C          65.8552   91.1813   12.9054 C.3     1  UNL1        0.1780
     24 N          67.0906   91.9392   12.5187 N.pl3   1  UNL1       -0.2868
     25 C          67.0541   92.8924   11.3611 C.ar    1  UNL1        0.0498
     26 C          67.8391   92.5934   10.1183 C.ar    1  UNL1        0.0155
     27 C          67.8026   93.5466    8.9608 C.ar    1  UNL1        0.0135
     28 C          66.9812   94.7988    9.0459 C.ar    1  UNL1        0.0683
     29 CL         66.9447   95.7521    7.8883 Cl      1  UNL1       -0.0814
     30 C          66.1963   95.0978   10.2887 C.ar    1  UNL1        0.0694
     31 CL         65.3748   96.3500   10.3738 Cl      1  UNL1       -0.0813
     32 C          66.2327   94.1446   11.4462 C.ar    1  UNL1        0.0268
     33 C          68.3624   91.7439   13.2897 C.3     1  UNL1        0.1986
     34 C          68.5793   92.4811   14.5779 C.1     1  UNL1        0.0954
     35 N          68.7962   93.2183   15.8661 N.1     1  UNL1       -0.1941
     36 C          64.6643   88.0948   14.8784 C.3     1  UNL1        0.0967
     37 N          63.8889   87.1625   15.7613 N.3     1  UNL1       -0.2710
     38 C          63.7660   85.6781   15.5837 C.3     1  UNL1        0.0722
     39 C          62.9015   85.1490   16.6894 C.3     1  UNL1        0.0188
     40 C          62.4900   86.3064   17.5504 C.3     1  UNL1        0.0188
     41 C          63.1003   87.5508   16.9767 C.3     1  UNL1        0.0722
@<TRIPOS>BOND
     1    19    20    1
     2    20    21   am
     3    21    22    2
     4    21    23    1
     5    23    24    1
     6    24    33    1
     7    33    34    1
     8    34    35    3
     9    24    25    1
    10    25    26   ar
    11    26    27   ar
    12    27    28   ar
    13    28    29    1
    14    28    30   ar
    15    30    31    1
    16    30    32   ar
    17    20     1    1
    18     1    36    1
    19    36    37    1
    20    37    38    1
    21    38    39    1
    22    39    40    1
    23    40    41    1
    24     1     2    1
    25     2     3   ar
    26     3     4   ar
    27     4     5   ar
    28     5     8    1
    29     8     9   ar
    30     9    10   ar
    31    10    11   ar
    32    11    12   ar
    33    12    14    1
    34    14    15   am
    35    14    16    2
    36    12    13   ar
    37     5     6   ar
    38     6     7   ar
    39    32    25   ar
    40    41    37    1
    41     7     2   ar
    42    13     8   ar
    43    15    17    1
    44    15    18    1
@<TRIPOS>MOLECULE
*****
 41 44 0 0 0
SMALL
GASTEIGER

@<TRIPOS>ATOM
      1 C          63.4761   89.7950   13.3018 C.3     1  UNL1        0.1139
      2 C          63.4097   88.3259   13.0062 C.ar    1  UNL1       -0.0029
      3 C          64.0415   87.3425   13.9462 C.ar    1  UNL1       -0.0026
      4 C          63.9750   85.8734   13.6506 C.ar    1  UNL1       -0.0003
      5 C          63.2768   85.3878   12.4151 C.ar    1  UNL1       -0.0000
      6 C          62.6449   86.3713   11.4751 C.ar    1  UNL1       -0.0003
      7 C          62.7113   87.8403   11.7706 C.ar    1  UNL1       -0.0026
      8 C          63.2103   83.9187   12.1196 C.ar    1  UNL1        0.0001
      9 C          63.7468   83.3895   10.8226 C.ar    1  UNL1        0.0000
     10 C          63.6804   81.9205   10.5271 C.ar    1  UNL1        0.0001
     11 C          63.0774   80.9805   11.5284 C.ar    1  UNL1        0.0045
     12 C          62.5408   81.5096   12.8255 C.ar    1  UNL1        0.0531
     13 C          62.6072   82.9787   13.1210 C.ar    1  UNL1        0.0045
     14 C          61.9378   80.5696   13.8268 C.2     1  UNL1        0.2427
     15 N          60.4789   80.6657   14.1620 N.am    1  UNL1       -0.3253
     16 O          62.7937   79.5336   14.4931 O.2     1  UNL1       -0.2704
     17 H          59.9171   81.3458   13.7247 H       1  UNL1        0.1453
     18 H          60.0831   80.0488   14.8192 H       1  UNL1        0.1453
     19 C          63.1015   89.9131   15.8700 C.3     1  UNL1        0.1152
     20 N          63.9098   90.2685   14.6574 N.am    1  UNL1       -0.2729
     21 C          65.1518   91.0973   14.8005 C.2     1  UNL1        0.2462
     22 O          65.5855   91.5707   16.1562 O.2     1  UNL1       -0.2730
     23 C          65.9601   91.4527   13.5880 C.3     1  UNL1        0.1780
     24 N          66.4129   92.8670   13.3765 N.pl3   1  UNL1       -0.2868
     25 C          66.6568   93.3766   11.9869 C.ar    1  UNL1        0.0498
     26 C          66.0900   94.6990   11.5627 C.ar    1  UNL1        0.0155
     27 C          66.3340   95.2085   10.1732 C.ar    1  UNL1        0.0135
     28 C          67.1448   94.3956    9.2079 C.ar    1  UNL1        0.0683
     29 CL         67.3887   94.9052    7.8183 Cl      1  UNL1       -0.0814
     30 C          67.7116   93.0733    9.6321 C.ar    1  UNL1        0.0694
     31 CL         68.5224   92.2604    8.6667 Cl      1  UNL1       -0.0813
     32 C          67.4677   92.5637   11.0216 C.ar    1  UNL1        0.0268
     33 C          66.6217   93.7717   14.5546 C.3     1  UNL1        0.1986
     34 C          67.9390   93.7770   15.2720 C.1     1  UNL1        0.0954
     35 N          69.2562   93.7823   15.9895 N.1     1  UNL1       -0.1941
     36 C          63.1089   90.7907   12.2416 C.3     1  UNL1        0.0967
     37 N          61.9560   90.5164   11.3222 N.3     1  UNL1       -0.2710
     38 C          62.0472   90.2506    9.8488 C.3     1  UNL1        0.0722
     39 C          60.6570   90.0297    9.3306 C.3     1  UNL1        0.0188
     40 C          59.7065   90.1589   10.4839 C.3     1  UNL1        0.0188
     41 C          60.5093   90.4597   11.7147 C.3     1  UNL1        0.0722
@<TRIPOS>BOND
     1    19    20    1
     2    20    21   am
     3    21    22    2
     4    21    23    1
     5    23    24    1
     6    24    33    1
     7    33    34    1
     8    34    35    3
     9    24    25    1
    10    25    26   ar
    11    26    27   ar
    12    27    28   ar
    13    28    29    1
    14    28    30   ar
    15    30    31    1
    16    30    32   ar
    17    20     1    1
    18     1    36    1
    19    36    37    1
    20    37    38    1
    21    38    39    1
    22    39    40    1
    23    40    41    1
    24     1     2    1
    25     2     3   ar
    26     3     4   ar
    27     4     5   ar
    28     5     8    1
    29     8     9   ar
    30     9    10   ar
    31    10    11   ar
    32    11    12   ar
    33    12    14    1
    34    14    15   am
    35    14    16    2
    36    12    13   ar
    37     5     6   ar
    38     6     7   ar
    39    32    25   ar
    40    41    37    1
    41     7     2   ar
    42    13     8   ar
    43    15    17    1
    44    15    18    1
@<TRIPOS>MOLECULE
*****
 41 44 0 0 0
SMALL
GASTEIGER

@<TRIPOS>ATOM
      1 C          61.8148   87.3538   10.6687 C.3     1  UNL1        0.1139
      2 C          62.6249   88.5060   11.1846 C.ar    1  UNL1       -0.0029
      3 C          63.2455   88.4353   12.5484 C.ar    1  UNL1       -0.0026
      4 C          64.0555   89.5875   13.0643 C.ar    1  UNL1       -0.0003
      5 C          64.2450   90.8104   12.2166 C.ar    1  UNL1       -0.0000
      6 C          63.6244   90.8810   10.8528 C.ar    1  UNL1       -0.0003
      7 C          62.8143   89.7288   10.3368 C.ar    1  UNL1       -0.0026
      8 C          65.0551   91.9626   12.7326 C.ar    1  UNL1        0.0001
      9 C          65.5694   91.9464   14.1415 C.ar    1  UNL1        0.0000
     10 C          66.3795   93.0986   14.6575 C.ar    1  UNL1        0.0001
     11 C          66.6752   94.2670   13.7645 C.ar    1  UNL1        0.0045
     12 C          66.1608   94.2832   12.3555 C.ar    1  UNL1        0.0531
     13 C          65.3508   93.1310   11.8395 C.ar    1  UNL1        0.0045
     14 C          66.4566   95.4515   11.4625 C.2     1  UNL1        0.2427
     15 N          65.7703   96.7651   11.6941 N.am    1  UNL1       -0.3253
     16 O          67.4385   95.3064   10.3380 O.2     1  UNL1       -0.2704
     17 H          65.1258   96.8604   12.4322 H       1  UNL1        0.1453
     18 H          65.9644   97.5320   11.1080 H       1  UNL1        0.1453
     19 C          62.7645   85.6713    8.9316 C.3     1  UNL1        0.1152
     20 N          62.4829   86.0477   10.3561 N.am    1  UNL1       -0.2729
     21 C          62.8694   85.1179   11.4679 C.2     1  UNL1        0.2462
     22 O          63.5375   83.8118   11.1552 O.2     1  UNL1       -0.2730
     23 C          62.5878   85.4943   12.8923 C.3     1  UNL1        0.1780
     24 N          63.0687   84.6160   14.0092 N.pl3   1  UNL1       -0.2868
     25 C          62.8690   83.1312   13.9349 C.ar    1  UNL1        0.0498
     26 C          64.0406   82.2284   13.6853 C.ar    1  UNL1        0.0155
     27 C          63.8408   80.7437   13.6110 C.ar    1  UNL1        0.0135
     28 C          62.4695   80.1617   13.7863 C.ar    1  UNL1        0.0683
     29 CL         62.2698   78.6768   13.7120 Cl      1  UNL1       -0.0814
     30 C          61.2979   81.0644   14.0359 C.ar    1  UNL1        0.0694
     31 CL         59.9266   80.4825   14.2112 Cl      1  UNL1       -0.0813
     32 C          61.4977   82.5492   14.1102 C.ar    1  UNL1        0.0268
     33 C          63.7493   85.2225   15.2003 C.3     1  UNL1        0.1986
     34 C          62.9459   85.6114   16.4059 C.1     1  UNL1        0.0954
     35 N          62.1424   86.0003   17.6114 N.1     1  UNL1       -0.1941
     36 C          60.3366   87.5077   10.4653 C.3     1  UNL1        0.0967
     37 N          59.7970   87.8375    9.1052 N.3     1  UNL1       -0.2710
     38 C          59.0891   86.8890    8.1837 C.3     1  UNL1        0.0722
     39 C          58.7252   87.6390    6.9367 C.3     1  UNL1        0.0188
     40 C          59.2081   89.0511    7.0875 C.3     1  UNL1        0.0188
     41 C          59.8705   89.1738    8.4277 C.3     1  UNL1        0.0722
@<TRIPOS>BOND
     1    19    20    1
     2    20    21   am
     3    21    22    2
     4    21    23    1
     5    23    24    1
     6    24    33    1
     7    33    34    1
     8    34    35    3
     9    24    25    1
    10    25    26   ar
    11    26    27   ar
    12    27    28   ar
    13    28    29    1
    14    28    30   ar
    15    30    31    1
    16    30    32   ar
    17    20     1    1
    18     1    36    1
    19    36    37    1
    20    37    38    1
    21    38    39    1
    22    39    40    1
    23    40    41    1
    24     1     2    1
    25     2     3   ar
    26     3     4   ar
    27     4     5   ar
    28     5     8    1
    29     8     9   ar
    30     9    10   ar
    31    10    11   ar
    32    11    12   ar
    33    12    14    1
    34    14    15   am
    35    14    16    2
    36    12    13   ar
    37     5     6   ar
    38     6     7   ar
    39    32    25   ar
    40    41    37    1
    41     7     2   ar
    42    13     8   ar
    43    15    17    1
    44    15    18    1
@<TRIPOS>MOLECULE
*****
 41 44 0 0 0
SMALL
GASTEIGER

@<TRIPOS>ATOM
      1 C          61.8551   87.6736   11.0027 C.3     1  UNL1        0.1139
      2 C          62.7136   88.5462   11.8696 C.ar    1  UNL1       -0.0029
      3 C          62.8524   90.0071   11.5591 C.ar    1  UNL1       -0.0026
      4 C          63.7109   90.8798   12.4260 C.ar    1  UNL1       -0.0003
      5 C          64.4305   90.2916   13.6034 C.ar    1  UNL1       -0.0000
      6 C          64.2916   88.8306   13.9138 C.ar    1  UNL1       -0.0003
      7 C          63.4332   87.9579   13.0470 C.ar    1  UNL1       -0.0026
      8 C          65.2889   91.1643   14.4702 C.ar    1  UNL1        0.0001
      9 C          64.7353   91.7342   15.7425 C.ar    1  UNL1        0.0000
     10 C          65.5938   92.6068   16.6094 C.ar    1  UNL1        0.0001
     11 C          67.0058   92.9096   16.2040 C.ar    1  UNL1        0.0045
     12 C          67.5595   92.3397   14.9317 C.ar    1  UNL1        0.0531
     13 C          66.7011   91.4670   14.0648 C.ar    1  UNL1        0.0045
     14 C          68.9716   92.6425   14.5263 C.2     1  UNL1        0.2427
     15 N          69.6144   91.8696   13.4131 N.am    1  UNL1       -0.3253
     16 O          69.7407   93.7182   15.2342 O.2     1  UNL1       -0.2704
     17 H          69.1096   91.1635   12.9485 H       1  UNL1        0.1453
     18 H          70.5412   92.0683   13.1471 H       1  UNL1        0.1453
     19 C          62.7224   86.3454    8.9450 C.3     1  UNL1        0.1152
     20 N          62.4196   86.4154   10.4125 N.am    1  UNL1       -0.2729
     21 C          62.6814   85.2272   11.2897 C.2     1  UNL1        0.2462
     22 O          63.2459   83.9690   10.6995 O.2     1  UNL1       -0.2730
     23 C          62.3787   85.2971   12.7572 C.3     1  UNL1        0.1780
     24 N          63.1107   84.4069   13.7173 N.pl3   1  UNL1       -0.2868
     25 C          62.8713   82.9262   13.6988 C.ar    1  UNL1        0.0498
     26 C          64.0010   81.9876   13.3943 C.ar    1  UNL1        0.0155
     27 C          63.7615   80.5070   13.3758 C.ar    1  UNL1        0.0135
     28 C          62.3924   79.9650   13.6618 C.ar    1  UNL1        0.0683
     29 CL         62.1530   78.4843   13.6433 Cl      1  UNL1       -0.0814
     30 C          61.2627   80.9036   13.9663 C.ar    1  UNL1        0.0694
     31 CL         59.8936   80.3617   14.2523 Cl      1  UNL1       -0.0813
     32 C          61.5022   82.3843   13.9847 C.ar    1  UNL1        0.0268
     33 C          64.0822   84.9974   14.6958 C.3     1  UNL1        0.1986
     34 C          63.5828   85.6174   15.9672 C.1     1  UNL1        0.0954
     35 N          63.0834   86.2373   17.2385 N.1     1  UNL1       -0.1941
     36 C          60.4321   88.0591   10.7260 C.3     1  UNL1        0.0967
     37 N          59.9301   88.1104    9.3135 N.3     1  UNL1       -0.2710
     38 C          59.2761   86.9845    8.5688 C.3     1  UNL1        0.0722
     39 C          58.9357   87.4749    7.1927 C.3     1  UNL1        0.0188
     40 C          59.3793   88.9039    7.0869 C.3     1  UNL1        0.0188
     41 C          59.9939   89.2967    8.3976 C.3     1  UNL1        0.0722
@<TRIPOS>BOND
     1    19    20    1
     2    20    21   am
     3    21    22    2
     4    21    23    1
     5    23    24    1
     6    24    33    1
     7    33    34    1
     8    34    35    3
     9    24    25    1
    10    25    26   ar
    11    26    27   ar
    12    27    28   ar
    13    28    29    1
    14    28    30   ar
    15    30    31    1
    16    30    32   ar
    17    20     1    1
    18     1    36    1
    19    36    37    1
    20    37    38    1
    21    38    39    1
    22    39    40    1
    23    40    41    1
    24     1     2    1
    25     2     3   ar
    26     3     4   ar
    27     4     5   ar
    28     5     8    1
    29     8     9   ar
    30     9    10   ar
    31    10    11   ar
    32    11    12   ar
    33    12    14    1
    34    14    15   am
    35    14    16    2
    36    12    13   ar
    37     5     6   ar
    38     6     7   ar
    39    32    25   ar
    40    41    37    1
    41     7     2   ar
    42    13     8   ar
    43    15    17    1
    44    15    18    1
@<TRIPOS>MOLECULE
*****
 41 44 0 0 0
SMALL
GASTEIGER

@<TRIPOS>ATOM
      1 C          63.5999   88.9386   13.2669 C.3     1  UNL1        0.1139
      2 C          63.3952   87.4528   13.2408 C.ar    1  UNL1       -0.0029
      3 C          63.9670   86.5977   14.3325 C.ar    1  UNL1       -0.0026
      4 C          63.7623   85.1120   14.3065 C.ar    1  UNL1       -0.0003
      5 C          62.9858   84.4813   13.1888 C.ar    1  UNL1       -0.0000
      6 C          62.4140   85.3365   12.0970 C.ar    1  UNL1       -0.0003
      7 C          62.6186   86.8222   12.1231 C.ar    1  UNL1       -0.0026
      8 C          62.7812   82.9956   13.1627 C.ar    1  UNL1        0.0001
      9 C          62.3721   82.2729   14.4118 C.ar    1  UNL1        0.0000
     10 C          62.1675   80.7871   14.3858 C.ar    1  UNL1        0.0001
     11 C          62.3718   80.0241   13.1106 C.ar    1  UNL1        0.0045
     12 C          62.7808   80.7469   11.8614 C.ar    1  UNL1        0.0531
     13 C          62.9855   82.2326   11.8875 C.ar    1  UNL1        0.0045
     14 C          62.9852   79.9839   10.5863 C.2     1  UNL1        0.2427
     15 N          62.6910   78.5138   10.5365 N.am    1  UNL1       -0.3253
     16 O          63.4837   80.6909    9.3609 O.2     1  UNL1       -0.2704
     17 H          62.3638   78.0498   11.3408 H       1  UNL1        0.1453
     18 H          62.8251   78.0131    9.6996 H       1  UNL1        0.1453
     19 C          63.4662   88.9843   15.8611 C.3     1  UNL1        0.1152
     20 N          63.8579   89.6374   14.5688 N.am    1  UNL1       -0.2729
     21 C          64.5077   90.9893   14.5784 C.2     1  UNL1        0.2462
     22 O          64.7658   91.6881   15.8804 O.2     1  UNL1       -0.2730
     23 C          64.8994   91.6424   13.2862 C.3     1  UNL1        0.1780
     24 N          66.3122   92.1003   13.0752 N.pl3   1  UNL1       -0.2868
     25 C          66.6523   92.9653   11.8979 C.ar    1  UNL1        0.0498
     26 C          66.2163   94.4003   11.8707 C.ar    1  UNL1        0.0155
     27 C          66.5564   95.2652   10.6934 C.ar    1  UNL1        0.0135
     28 C          67.3327   94.6953    9.5433 C.ar    1  UNL1        0.0683
     29 CL         67.6729   95.5604    8.3660 Cl      1  UNL1       -0.0814
     30 C          67.7688   93.2604    9.5706 C.ar    1  UNL1        0.0694
     31 CL         68.5450   92.6904    8.4205 Cl      1  UNL1       -0.0813
     32 C          67.4286   92.3954   10.7479 C.ar    1  UNL1        0.0268
     33 C          67.3847   91.6931   14.0415 C.3     1  UNL1        0.1986
     34 C          68.0349   92.7224   14.9178 C.1     1  UNL1        0.0954
     35 N          68.6851   93.7517   15.7940 N.1     1  UNL1       -0.1941
     36 C          63.5465   89.7255   11.9909 C.3     1  UNL1        0.0967
     37 N          62.2564   89.8409   11.2344 N.3     1  UNL1       -0.2710
     38 C          62.0737   89.6129    9.7631 C.3     1  UNL1        0.0722
     39 C          60.6270   89.8356    9.4357 C.3     1  UNL1        0.0188
     40 C          59.9154   90.2013   10.7046 C.3     1  UNL1        0.0188
     41 C          60.9225   90.2045   11.8162 C.3     1  UNL1        0.0722
@<TRIPOS>BOND
     1    19    20    1
     2    20    21   am
     3    21    22    2
     4    21    23    1
     5    23    24    1
     6    24    33    1
     7    33    34    1
     8    34    35    3
     9    24    25    1
    10    25    26   ar
    11    26    27   ar
    12    27    28   ar
    13    28    29    1
    14    28    30   ar
    15    30    31    1
    16    30    32   ar
    17    20     1    1
    18     1    36    1
    19    36    37    1
    20    37    38    1
    21    38    39    1
    22    39    40    1
    23    40    41    1
    24     1     2    1
    25     2     3   ar
    26     3     4   ar
    27     4     5   ar
    28     5     8    1
    29     8     9   ar
    30     9    10   ar
    31    10    11   ar
    32    11    12   ar
    33    12    14    1
    34    14    15   am
    35    14    16    2
    36    12    13   ar
    37     5     6   ar
    38     6     7   ar
    39    32    25   ar
    40    41    37    1
    41     7     2   ar
    42    13     8   ar
    43    15    17    1
    44    15    18    1
@<TRIPOS>MOLECULE
*****
 41 44 0 0 0
SMALL
GASTEIGER

@<TRIPOS>ATOM
      1 C          63.2324   84.3404   13.2168 C.3     1  UNL1        0.1139
      2 C          63.5933   85.7313   13.6474 C.ar    1  UNL1       -0.0029
      3 C          64.2556   85.9576   14.9740 C.ar    1  UNL1       -0.0026
      4 C          64.6165   87.3485   15.4045 C.ar    1  UNL1       -0.0003
      5 C          64.3150   88.5129   14.5084 C.ar    1  UNL1       -0.0000
      6 C          63.6527   88.2866   13.1817 C.ar    1  UNL1       -0.0003
      7 C          63.2918   86.8958   12.7511 C.ar    1  UNL1       -0.0026
      8 C          64.6759   89.9038   14.9389 C.ar    1  UNL1        0.0001
      9 C          63.8989   90.5759   16.0318 C.ar    1  UNL1        0.0000
     10 C          64.2598   91.9668   16.4623 C.ar    1  UNL1        0.0001
     11 C          65.3976   92.6854   15.8000 C.ar    1  UNL1        0.0045
     12 C          66.1747   92.0133   14.7071 C.ar    1  UNL1        0.0531
     13 C          65.8138   90.6224   14.2765 C.ar    1  UNL1        0.0045
     14 C          67.3126   92.7319   14.0447 C.2     1  UNL1        0.2427
     15 N          68.7278   92.3519   14.3652 N.am    1  UNL1       -0.3253
     16 O          67.0352   93.8306   13.0619 O.2     1  UNL1       -0.2704
     17 H          68.9099   91.6308   15.0103 H       1  UNL1        0.1453
     18 H          69.4746   92.8236   13.9305 H       1  UNL1        0.1453
     19 C          65.2173   82.9237   12.3206 C.3     1  UNL1        0.1152
     20 N          63.9571   83.6981   12.0713 N.am    1  UNL1       -0.2729
     21 C          63.4215   83.8302   10.6764 C.2     1  UNL1        0.2462
     22 O          64.1462   83.1879    9.5308 O.2     1  UNL1       -0.2730
     23 C          62.1613   84.6046   10.4270 C.3     1  UNL1        0.1780
     24 N          62.1745   85.7780    9.4927 N.pl3   1  UNL1       -0.2868
     25 C          61.6012   87.0928    9.9318 C.ar    1  UNL1        0.0498
     26 C          60.2414   87.1448   10.5628 C.ar    1  UNL1        0.0155
     27 C          59.6682   88.4596   11.0018 C.ar    1  UNL1        0.0135
     28 C          60.4548   89.7223   10.8098 C.ar    1  UNL1        0.0683
     29 CL         59.8815   91.0371   11.2489 Cl      1  UNL1       -0.0814
     30 C          61.8146   89.6703   10.1788 C.ar    1  UNL1        0.0694
     31 CL         62.6012   90.9330    9.9868 Cl      1  UNL1       -0.0813
     32 C          62.3878   88.3555    9.7398 C.ar    1  UNL1        0.0268
     33 C          62.7610   85.6366    8.1194 C.3     1  UNL1        0.1986
     34 C          61.9913   84.9279    7.0444 C.1     1  UNL1        0.0954
     35 N          61.2217   84.2193    5.9695 N.1     1  UNL1       -0.1941
     36 C          62.1469   83.5919   13.9319 C.3     1  UNL1        0.0967
     37 N          62.1124   82.0931   13.8840 N.3     1  UNL1       -0.2710
     38 C          60.8848   81.2360   13.9748 C.3     1  UNL1        0.0722
     39 C          61.3132   79.8014   13.8838 C.3     1  UNL1        0.0188
     40 C          62.8057   79.7718   13.7366 C.3     1  UNL1        0.0188
     41 C          63.2996   81.1881   13.7368 C.3     1  UNL1        0.0722
@<TRIPOS>BOND
     1    19    20    1
     2    20    21   am
     3    21    22    2
     4    21    23    1
     5    23    24    1
     6    24    33    1
     7    33    34    1
     8    34    35    3
     9    24    25    1
    10    25    26   ar
    11    26    27   ar
    12    27    28   ar
    13    28    29    1
    14    28    30   ar
    15    30    31    1
    16    30    32   ar
    17    20     1    1
    18     1    36    1
    19    36    37    1
    20    37    38    1
    21    38    39    1
    22    39    40    1
    23    40    41    1
    24     1     2    1
    25     2     3   ar
    26     3     4   ar
    27     4     5   ar
    28     5     8    1
    29     8     9   ar
    30     9    10   ar
    31    10    11   ar
    32    11    12   ar
    33    12    14    1
    34    14    15   am
    35    14    16    2
    36    12    13   ar
    37     5     6   ar
    38     6     7   ar
    39    32    25   ar
    40    41    37    1
    41     7     2   ar
    42    13     8   ar
    43    15    17    1
    44    15    18    1
@<TRIPOS>MOLECULE
*****
 41 44 0 0 0
SMALL
GASTEIGER

@<TRIPOS>ATOM
      1 C          62.0142   90.0306   11.2066 C.3     1  UNL1        0.1139
      2 C          62.2588   88.5509   11.1845 C.ar    1  UNL1       -0.0029
      3 C          61.8631   87.7431    9.9841 C.ar    1  UNL1       -0.0026
      4 C          62.1077   86.2634    9.9620 C.ar    1  UNL1       -0.0003
      5 C          62.7480   85.5914   11.1403 C.ar    1  UNL1       -0.0000
      6 C          63.1437   86.3991   12.3407 C.ar    1  UNL1       -0.0003
      7 C          62.8991   87.8789   12.3628 C.ar    1  UNL1       -0.0026
      8 C          62.9926   84.1116   11.1182 C.ar    1  UNL1        0.0001
      9 C          63.7079   83.4869    9.9571 C.ar    1  UNL1        0.0000
     10 C          63.9525   82.0072    9.9350 C.ar    1  UNL1        0.0001
     11 C          63.4819   81.1521   11.0740 C.ar    1  UNL1        0.0045
     12 C          62.7665   81.7768   12.2351 C.ar    1  UNL1        0.0531
     13 C          62.5219   83.2565   12.2572 C.ar    1  UNL1        0.0045
     14 C          62.2959   80.9217   13.3741 C.2     1  UNL1        0.2427
     15 N          61.9404   81.5519   14.6880 N.am    1  UNL1       -0.3253
     16 O          62.1807   79.4364   13.1990 O.2     1  UNL1       -0.2704
     17 H          62.0161   82.5267   14.8029 H       1  UNL1        0.1453
     18 H          61.6315   80.9906   15.4356 H       1  UNL1        0.1453
     19 C          63.5248   91.3668    9.5686 C.3     1  UNL1        0.1152
     20 N          63.1492   90.9821   10.9690 N.am    1  UNL1       -0.2729
     21 C          63.9086   91.5489   12.1317 C.2     1  UNL1        0.2462
     22 O          65.0437   92.5003   11.8941 O.2     1  UNL1       -0.2730
     23 C          63.5331   91.1642   13.5321 C.3     1  UNL1        0.1780
     24 N          64.5230   90.4517   14.4052 N.pl3   1  UNL1       -0.2868
     25 C          64.0836   89.2856   15.2402 C.ar    1  UNL1        0.0498
     26 C          63.1913   89.5059   16.4256 C.ar    1  UNL1        0.0155
     27 C          62.7520   88.3398   17.2606 C.ar    1  UNL1        0.0135
     28 C          63.2049   86.9534   16.9101 C.ar    1  UNL1        0.0683
     29 CL         62.7656   85.7873   17.7451 Cl      1  UNL1       -0.0814
     30 C          64.0973   86.7331   15.7247 C.ar    1  UNL1        0.0694
     31 CL         64.5502   85.3468   15.3743 Cl      1  UNL1       -0.0813
     32 C          64.5366   87.8992   14.8898 C.ar    1  UNL1        0.0268
     33 C          65.9523   90.9053   14.4434 C.3     1  UNL1        0.1986
     34 C          66.3708   91.9869   15.3948 C.1     1  UNL1        0.0954
     35 N          66.7892   93.0684   16.3461 N.1     1  UNL1       -0.1941
     36 C          60.6345   90.5589   11.4663 C.3     1  UNL1        0.0967
     37 N          59.6914   89.7931   12.3461 N.3     1  UNL1       -0.2710
     38 C          58.3279   89.3017   11.9598 C.3     1  UNL1        0.0722
     39 C          57.7400   88.5891   13.1416 C.3     1  UNL1        0.0188
     40 C          58.7403   88.6401   14.2583 C.3     1  UNL1        0.0188
     41 C          59.9463   89.3842   13.7666 C.3     1  UNL1        0.0722
@<TRIPOS>BOND
     1    19    20    1
     2    20    21   am
     3    21    22    2
     4    21    23    1
     5    23    24    1
     6    24    33    1
     7    33    34    1
     8    34    35    3
     9    24    25    1
    10    25    26   ar
    11    26    27   ar
    12    27    28   ar
    13    28    29    1
    14    28    30   ar
    15    30    31    1
    16    30    32   ar
    17    20     1    1
    18     1    36    1
    19    36    37    1
    20    37    38    1
    21    38    39    1
    22    39    40    1
    23    40    41    1
    24     1     2    1
    25     2     3   ar
    26     3     4   ar
    27     4     5   ar
    28     5     8    1
    29     8     9   ar
    30     9    10   ar
    31    10    11   ar
    32    11    12   ar
    33    12    14    1
    34    14    15   am
    35    14    16    2
    36    12    13   ar
    37     5     6   ar
    38     6     7   ar
    39    32    25   ar
    40    41    37    1
    41     7     2   ar
    42    13     8   ar
    43    15    17    1
    44    15    18    1
@<TRIPOS>MOLECULE
*****
 41 44 0 0 0
SMALL
GASTEIGER

@<TRIPOS>ATOM
      1 C          62.0569   89.6768   10.5216 C.3     1  UNL1        0.1139
      2 C          62.2935   88.2031   10.6709 C.ar    1  UNL1       -0.0029
      3 C          62.5285   87.3545    9.4566 C.ar    1  UNL1       -0.0026
      4 C          62.7651   85.8808    9.6058 C.ar    1  UNL1       -0.0003
      5 C          62.7667   85.2558   10.9694 C.ar    1  UNL1       -0.0000
      6 C          62.5317   86.1044   12.1838 C.ar    1  UNL1       -0.0003
      7 C          62.2951   87.5781   12.0345 C.ar    1  UNL1       -0.0026
      8 C          63.0033   83.7821   11.1186 C.ar    1  UNL1        0.0001
      9 C          63.7290   83.0265   10.0452 C.ar    1  UNL1        0.0000
     10 C          63.9656   81.5528   10.1944 C.ar    1  UNL1        0.0001
     11 C          63.4765   80.8347   11.4171 C.ar    1  UNL1        0.0045
     12 C          62.7508   81.5903   12.4907 C.ar    1  UNL1        0.0531
     13 C          62.5142   83.0640   12.3414 C.ar    1  UNL1        0.0045
     14 C          62.2617   80.8722   13.7134 C.2     1  UNL1        0.2427
     15 N          60.8316   81.0126   14.1439 N.am    1  UNL1       -0.3253
     16 O          63.2026   80.0138   14.5056 O.2     1  UNL1       -0.2704
     17 H          60.2141   81.5760   13.6239 H       1  UNL1        0.1453
     18 H          60.5106   80.5412   14.9464 H       1  UNL1        0.1453
     19 C          63.9019   91.3167    9.7110 C.3     1  UNL1        0.1152
     20 N          63.1578   90.6481   10.8289 N.am    1  UNL1       -0.2729
     21 C          63.5149   90.9508   12.2540 C.2     1  UNL1        0.2462
     22 O          64.6159   91.9222   12.5612 O.2     1  UNL1       -0.2730
     23 C          62.7709   90.2823   13.3718 C.3     1  UNL1        0.1780
     24 N          63.4432   90.0634   14.6947 N.pl3   1  UNL1       -0.2868
     25 C          63.5350   88.6810   15.2697 C.ar    1  UNL1        0.0498
     26 C          62.8275   88.3531   16.5510 C.ar    1  UNL1        0.0155
     27 C          62.9193   86.9708   17.1259 C.ar    1  UNL1        0.0135
     28 C          63.7187   85.9163   16.4196 C.ar    1  UNL1        0.0683
     29 CL         63.8106   84.5339   16.9946 Cl      1  UNL1       -0.0814
     30 C          64.4263   86.2442   15.1383 C.ar    1  UNL1        0.0694
     31 CL         65.2258   85.1897   14.4319 Cl      1  UNL1       -0.0813
     32 C          64.3345   87.6265   14.5634 C.ar    1  UNL1        0.0268
     33 C          64.0237   91.2269   15.4427 C.3     1  UNL1        0.1986
     34 C          65.4890   91.5302   15.3379 C.1     1  UNL1        0.0954
     35 N          66.9542   91.8335   15.2331 N.1     1  UNL1       -0.1941
     36 C          60.7192   90.1792   10.0651 C.3     1  UNL1        0.0967
     37 N          60.0218   89.5161    8.9145 N.3     1  UNL1       -0.2710
     38 C          59.3809   88.1601    8.9351 C.3     1  UNL1        0.0722
     39 C          58.8059   87.8985    7.5747 C.3     1  UNL1        0.0188
     40 C          59.0913   89.0928    6.7132 C.3     1  UNL1        0.0188
     41 C          59.8428   90.0926    7.5413 C.3     1  UNL1        0.0722
@<TRIPOS>BOND
     1    19    20    1
     2    20    21   am
     3    21    22    2
     4    21    23    1
     5    23    24    1
     6    24    33    1
     7    33    34    1
     8    34    35    3
     9    24    25    1
    10    25    26   ar
    11    26    27   ar
    12    27    28   ar
    13    28    29    1
    14    28    30   ar
    15    30    31    1
    16    30    32   ar
    17    20     1    1
    18     1    36    1
    19    36    37    1
    20    37    38    1
    21    38    39    1
    22    39    40    1
    23    40    41    1
    24     1     2    1
    25     2     3   ar
    26     3     4   ar
    27     4     5   ar
    28     5     8    1
    29     8     9   ar
    30     9    10   ar
    31    10    11   ar
    32    11    12   ar
    33    12    14    1
    34    14    15   am
    35    14    16    2
    36    12    13   ar
    37     5     6   ar
    38     6     7   ar
    39    32    25   ar
    40    41    37    1
    41     7     2   ar
    42    13     8   ar
    43    15    17    1
    44    15    18    1
