@<TRIPOS>MOLECULE
*****
 23 26 0 0 0
SMALL
GASTEIGER

@<TRIPOS>ATOM
      1 C          67.5876   93.8445   15.3210 C.3     1  UNL1        0.1305
      2 N          66.7667   93.5701   14.0959 N.ar    1  UNL1       -0.3240
      3 C          66.6177   94.4797   12.9125 C.ar    1  UNL1        0.0760
      4 C          65.7096   93.8098   11.9242 C.ar    1  UNL1        0.0201
      5 C          65.2974   92.4861   12.4969 C.ar    1  UNL1        0.0185
      6 C          64.4116   91.3965   11.9696 C.ar    1  UNL1        0.0161
      7 C          64.1791   90.1587   12.7844 C.ar    1  UNL1        0.0514
      8 C          64.8324   90.0106   14.1264 C.ar    1  UNL1       -0.0053
      9 C          65.7182   91.1003   14.6538 C.ar    1  UNL1        0.0142
     10 C          65.9507   92.3380   13.8390 C.ar    1  UNL1        0.0597
     11 C          64.4202   88.6869   14.6990 C.3     1  UNL1        0.0496
     12 C          63.5121   88.0169   13.7109 C.3     1  UNL1        0.1045
     13 N          63.3631   88.9266   12.5275 N.am    1  UNL1       -0.2430
     14 C          62.5423   88.6523   11.3024 C.2     1  UNL1        0.3115
     15 O          62.4888   89.6614   10.1939 O.2     1  UNL1       -0.2519
     16 N          61.7749   87.3687   11.1857 N.am    1  UNL1       -0.2666
     17 H          61.8100   86.7063   11.9133 H       1  UNL1        0.1565
     18 C          60.9540   87.0943    9.9606 C.ar    1  UNL1        0.0709
     19 C          61.4397   86.1111    8.9371 C.ar    1  UNL1        0.0179
     20 C          60.6189   85.8368    7.7119 C.ar    1  UNL1        0.0220
     21 C          59.3123   86.5456    7.5103 C.ar    1  UNL1        0.0990
     22 N          58.8267   87.5287    8.5338 N.ar    1  UNL1       -0.2410
     23 C          59.6475   87.8031    9.7590 C.ar    1  UNL1        0.1135
@<TRIPOS>BOND
     1     1     2    1
     2     2     3   ar
     3     3     4   ar
     4     4     5   ar
     5     5     6   ar
     6     6     7   ar
     7     7     8   ar
     8     8     9   ar
     9     9    10   ar
    10     8    11    1
    11    11    12    1
    12    12    13    1
    13    13    14   am
    14    14    15    2
    15    14    16   am
    16    16    18    1
    17    18    19   ar
    18    19    20   ar
    19    20    21   ar
    20    21    22   ar
    21    22    23   ar
    22    10     2   ar
    23    23    18   ar
    24    10     5   ar
    25    13     7    1
    26    16    17    1
@<TRIPOS>MOLECULE
*****
 23 26 0 0 0
SMALL
GASTEIGER

@<TRIPOS>ATOM
      1 C          62.3873   80.6001   11.4489 C.3     1  UNL1        0.1305
      2 N          63.0154   81.5383   12.4364 N.ar    1  UNL1       -0.3240
      3 C          63.7765   81.1432   13.6670 C.ar    1  UNL1        0.0760
      4 C          64.2241   82.3971   14.3579 C.ar    1  UNL1        0.0201
      5 C          63.7397   83.5673   13.5541 C.ar    1  UNL1        0.0185
      6 C          63.8822   85.0476   13.7502 C.ar    1  UNL1        0.0161
      7 C          63.2777   85.9971   12.7587 C.ar    1  UNL1        0.0514
      8 C          62.5307   85.4664   11.5713 C.ar    1  UNL1       -0.0053
      9 C          62.3881   83.9860   11.3751 C.ar    1  UNL1        0.0142
     10 C          62.9926   83.0365   12.3666 C.ar    1  UNL1        0.0597
     11 C          62.0462   86.6366   10.7675 C.3     1  UNL1        0.0496
     12 C          62.4938   87.8905   11.4582 C.3     1  UNL1        0.1045
     13 N          63.2550   87.4953   12.6890 N.am    1  UNL1       -0.2430
     14 C          63.8831   88.4336   13.6764 C.2     1  UNL1        0.3115
     15 O          64.6167   87.8893   14.8662 O.2     1  UNL1       -0.2519
     16 N          63.7775   89.9162   13.4741 N.am    1  UNL1       -0.2666
     17 H          63.2960   90.2734   12.6932 H       1  UNL1        0.1565
     18 C          64.4056   90.8544   14.4616 C.ar    1  UNL1        0.0709
     19 C          65.7244   91.4979   14.1506 C.ar    1  UNL1        0.0179
     20 C          66.3525   92.4362   15.1381 C.ar    1  UNL1        0.0220
     21 C          65.6617   92.7310   16.4366 C.ar    1  UNL1        0.0990
     22 N          64.3430   92.0875   16.7475 N.ar    1  UNL1       -0.2410
     23 C          63.7149   91.1493   15.7601 C.ar    1  UNL1        0.1135
@<TRIPOS>BOND
     1     1     2    1
     2     2     3   ar
     3     3     4   ar
     4     4     5   ar
     5     5     6   ar
     6     6     7   ar
     7     7     8   ar
     8     8     9   ar
     9     9    10   ar
    10     8    11    1
    11    11    12    1
    12    12    13    1
    13    13    14   am
    14    14    15    2
    15    14    16   am
    16    16    18    1
    17    18    19   ar
    18    19    20   ar
    19    20    21   ar
    20    21    22   ar
    21    22    23   ar
    22    10     2   ar
    23    23    18   ar
    24    10     5   ar
    25    13     7    1
    26    16    17    1
@<TRIPOS>MOLECULE
*****
 23 26 0 0 0
SMALL
GASTEIGER

@<TRIPOS>ATOM
      1 C          59.0068   86.0847    7.3655 C.3     1  UNL1        0.1305
      2 N          59.5951   87.3336    7.9522 N.ar    1  UNL1       -0.3240
      3 C          59.3596   88.7325    7.4646 C.ar    1  UNL1        0.0760
      4 C          60.1411   89.6664    8.3404 C.ar    1  UNL1        0.0201
      5 C          60.8595   88.8447    9.3694 C.ar    1  UNL1        0.0185
      6 C          61.7774   89.2230   10.4938 C.ar    1  UNL1        0.0161
      7 C          62.3578   88.1596   11.3783 C.ar    1  UNL1        0.0514
      8 C          62.0204   86.7180   11.1383 C.ar    1  UNL1       -0.0053
      9 C          61.1024   86.3396   10.0138 C.ar    1  UNL1        0.0142
     10 C          60.5221   87.4030    9.1294 C.ar    1  UNL1        0.0597
     11 C          62.7388   85.8963   12.1673 C.3     1  UNL1        0.0496
     12 C          63.5202   86.8301   13.0432 C.3     1  UNL1        0.1045
     13 N          63.2848   88.2290   12.5555 N.am    1  UNL1       -0.2430
     14 C          63.8730   89.4779   13.1421 C.2     1  UNL1        0.3115
     15 O          63.5450   90.8140   12.5444 O.2     1  UNL1       -0.2519
     16 N          64.7894   89.3908   14.3266 N.am    1  UNL1       -0.2666
     17 H          65.0047   88.5139   14.7189 H       1  UNL1        0.1565
     18 C          65.3776   90.6397   14.9132 C.ar    1  UNL1        0.0709
     19 C          66.7566   91.0771   14.5168 C.ar    1  UNL1        0.0179
     20 C          67.3449   92.3260   15.1035 C.ar    1  UNL1        0.0220
     21 C          66.5541   93.1376   16.0864 C.ar    1  UNL1        0.0990
     22 N          65.1751   92.7002   16.4827 N.ar    1  UNL1       -0.2410
     23 C          64.5869   91.4512   15.8961 C.ar    1  UNL1        0.1135
@<TRIPOS>BOND
     1     1     2    1
     2     2     3   ar
     3     3     4   ar
     4     4     5   ar
     5     5     6   ar
     6     6     7   ar
     7     7     8   ar
     8     8     9   ar
     9     9    10   ar
    10     8    11    1
    11    11    12    1
    12    12    13    1
    13    13    14   am
    14    14    15    2
    15    14    16   am
    16    16    18    1
    17    18    19   ar
    18    19    20   ar
    19    20    21   ar
    20    21    22   ar
    21    22    23   ar
    22    10     2   ar
    23    23    18   ar
    24    10     5   ar
    25    13     7    1
    26    16    17    1
@<TRIPOS>MOLECULE
*****
 23 26 0 0 0
SMALL
GASTEIGER

@<TRIPOS>ATOM
      1 C          66.1443   94.8245   12.8745 C.3     1  UNL1        0.1305
      2 N          66.1354   93.4781   13.5358 N.ar    1  UNL1       -0.3240
      3 C          66.9088   93.0929   14.7619 C.ar    1  UNL1        0.0760
      4 C          66.6028   91.6573   15.0710 C.ar    1  UNL1        0.0201
      5 C          65.6404   91.1553   14.0358 C.ar    1  UNL1        0.0185
      6 C          64.9897   89.8188   13.8345 C.ar    1  UNL1        0.0161
      7 C          64.0501   89.6077   12.6845 C.ar    1  UNL1        0.0514
      8 C          63.7612   90.7330   11.7358 C.ar    1  UNL1       -0.0053
      9 C          64.4119   92.0695   11.9370 C.ar    1  UNL1        0.0142
     10 C          65.3515   92.2806   13.0870 C.ar    1  UNL1        0.0597
     11 C          62.7987   90.2310   10.7006 C.3     1  UNL1        0.0496
     12 C          62.4927   88.7954   11.0095 C.3     1  UNL1        0.1045
     13 N          63.2662   88.4102   12.2357 N.am    1  UNL1       -0.2430
     14 C          63.2572   87.0639   12.8970 C.2     1  UNL1        0.3115
     15 O          64.0863   86.8254   14.1240 O.2     1  UNL1       -0.2519
     16 N          62.4192   85.9559   12.3310 N.am    1  UNL1       -0.2666
     17 H          61.8751   86.1124   11.5256 H       1  UNL1        0.1565
     18 C          62.4102   84.6095   12.9923 C.ar    1  UNL1        0.0709
     19 C          62.5055   83.3648   12.1606 C.ar    1  UNL1        0.0179
     20 C          62.4965   82.0185   12.8218 C.ar    1  UNL1        0.0220
     21 C          62.3923   81.9168   14.3148 C.ar    1  UNL1        0.0990
     22 N          62.2971   83.1615   15.1464 N.ar    1  UNL1       -0.2410
     23 C          62.3060   84.5079   14.4852 C.ar    1  UNL1        0.1135
@<TRIPOS>BOND
     1     1     2    1
     2     2     3   ar
     3     3     4   ar
     4     4     5   ar
     5     5     6   ar
     6     6     7   ar
     7     7     8   ar
     8     8     9   ar
     9     9    10   ar
    10     8    11    1
    11    11    12    1
    12    12    13    1
    13    13    14   am
    14    14    15    2
    15    14    16   am
    16    16    18    1
    17    18    19   ar
    18    19    20   ar
    19    20    21   ar
    20    21    22   ar
    21    22    23   ar
    22    10     2   ar
    23    23    18   ar
    24    10     5   ar
    25    13     7    1
    26    16    17    1
@<TRIPOS>MOLECULE
*****
 23 26 0 0 0
SMALL
GASTEIGER

@<TRIPOS>ATOM
      1 C          61.7462   80.7357   14.1924 C.3     1  UNL1        0.1305
      2 N          62.2935   81.9365   13.4794 N.ar    1  UNL1       -0.3240
      3 C          62.6392   82.0149   12.0219 C.ar    1  UNL1        0.0760
      4 C          63.1506   83.3967   11.7404 C.ar    1  UNL1        0.0201
      5 C          63.1211   84.1723   13.0240 C.ar    1  UNL1        0.0185
      6 C          63.5081   85.5836   13.3531 C.ar    1  UNL1        0.0161
      7 C          63.3654   86.0925   14.7569 C.ar    1  UNL1        0.0514
      8 C          62.8357   85.1902   15.8315 C.ar    1  UNL1       -0.0053
      9 C          62.4487   83.7788   15.5025 C.ar    1  UNL1        0.0142
     10 C          62.5914   83.2698   14.0988 C.ar    1  UNL1        0.0597
     11 C          62.8062   85.9658   17.1151 C.3     1  UNL1        0.0496
     12 C          63.3176   87.3475   16.8338 C.3     1  UNL1        0.1045
     13 N          63.6632   87.4259   15.3762 N.am    1  UNL1       -0.2430
     14 C          64.2106   88.6267   14.6632 C.2     1  UNL1        0.3115
     15 O          64.5098   88.5555   13.1951 O.2     1  UNL1       -0.2519
     16 N          64.4587   89.8988   15.4184 N.am    1  UNL1       -0.2666
     17 H          64.2622   89.9456   16.3820 H       1  UNL1        0.1565
     18 C          65.0060   91.0997   14.7054 C.ar    1  UNL1        0.0709
     19 C          66.0477   91.9537   15.3655 C.ar    1  UNL1        0.0179
     20 C          66.5951   93.1545   14.6526 C.ar    1  UNL1        0.0220
     21 C          66.1008   93.5014   13.2794 C.ar    1  UNL1        0.0990
     22 N          65.0591   92.6474   12.6194 N.ar    1  UNL1       -0.2410
     23 C          64.5118   91.4466   13.3323 C.ar    1  UNL1        0.1135
@<TRIPOS>BOND
     1     1     2    1
     2     2     3   ar
     3     3     4   ar
     4     4     5   ar
     5     5     6   ar
     6     6     7   ar
     7     7     8   ar
     8     8     9   ar
     9     9    10   ar
    10     8    11    1
    11    11    12    1
    12    12    13    1
    13    13    14   am
    14    14    15    2
    15    14    16   am
    16    16    18    1
    17    18    19   ar
    18    19    20   ar
    19    20    21   ar
    20    21    22   ar
    21    22    23   ar
    22    10     2   ar
    23    23    18   ar
    24    10     5   ar
    25    13     7    1
    26    16    17    1
@<TRIPOS>MOLECULE
*****
 23 26 0 0 0
SMALL
GASTEIGER

@<TRIPOS>ATOM
      1 C          64.3035   92.3700   16.7456 C.3     1  UNL1        0.1305
      2 N          64.3929   91.3457   15.6535 N.ar    1  UNL1       -0.3240
      3 C          64.8984   91.5830   14.2613 C.ar    1  UNL1        0.0760
      4 C          64.8104   90.2881   13.5092 C.ar    1  UNL1        0.0201
      5 C          64.2507   89.2505   14.4366 C.ar    1  UNL1        0.0185
      6 C          63.9426   87.7950   14.2456 C.ar    1  UNL1        0.0161
      7 C          63.3765   86.9931   15.3798 C.ar    1  UNL1        0.0514
      8 C          63.1184   87.6466   16.7049 C.ar    1  UNL1       -0.0053
      9 C          63.4265   89.1022   16.8960 C.ar    1  UNL1        0.0142
     10 C          63.9927   89.9041   15.7618 C.ar    1  UNL1        0.0597
     11 C          62.5587   86.6090   17.6323 C.3     1  UNL1        0.0496
     12 C          62.4707   85.3142   16.8804 C.3     1  UNL1        0.1045
     13 N          62.9762   85.5516   15.4881 N.am    1  UNL1       -0.2430
     14 C          63.0656   84.5272   14.3960 C.2     1  UNL1        0.3115
     15 O          63.5951   84.9136   13.0468 O.2     1  UNL1       -0.2519
     16 N          62.6255   83.1164   14.6531 N.am    1  UNL1       -0.2666
     17 H          62.2780   82.8628   15.5387 H       1  UNL1        0.1565
     18 C          62.7149   82.0920   13.5610 C.ar    1  UNL1        0.0709
     19 C          63.1415   82.5010   12.1823 C.ar    1  UNL1        0.0179
     20 C          63.2309   81.4766   11.0902 C.ar    1  UNL1        0.0220
     21 C          62.8938   80.0433   11.3768 C.ar    1  UNL1        0.0990
     22 N          62.4673   79.6344   12.7555 N.ar    1  UNL1       -0.2410
     23 C          62.3779   80.6588   13.8476 C.ar    1  UNL1        0.1135
@<TRIPOS>BOND
     1     1     2    1
     2     2     3   ar
     3     3     4   ar
     4     4     5   ar
     5     5     6   ar
     6     6     7   ar
     7     7     8   ar
     8     8     9   ar
     9     9    10   ar
    10     8    11    1
    11    11    12    1
    12    12    13    1
    13    13    14   am
    14    14    15    2
    15    14    16   am
    16    16    18    1
    17    18    19   ar
    18    19    20   ar
    19    20    21   ar
    20    21    22   ar
    21    22    23   ar
    22    10     2   ar
    23    23    18   ar
    24    10     5   ar
    25    13     7    1
    26    16    17    1
@<TRIPOS>MOLECULE
*****
 23 26 0 0 0
SMALL
GASTEIGER

@<TRIPOS>ATOM
      1 C          45.6965   79.3795   21.5900 C.3     1  UNL1        0.1305
      2 N          45.7750   78.7972   20.2098 N.ar    1  UNL1       -0.3240
      3 C          46.0798   79.5525   18.9502 C.ar    1  UNL1        0.0760
      4 C          46.0557   78.5795   17.8089 C.ar    1  UNL1        0.0201
      5 C          45.7359   77.2228   18.3631 C.ar    1  UNL1        0.0185
      6 C          45.5802   75.8823   17.7083 C.ar    1  UNL1        0.0161
      7 C          45.2511   74.6764   18.5374 C.ar    1  UNL1        0.0514
      8 C          45.0776   74.8109   20.0211 C.ar    1  UNL1       -0.0053
      9 C          45.2333   76.1515   20.6760 C.ar    1  UNL1        0.0142
     10 C          45.5624   77.3574   19.8469 C.ar    1  UNL1        0.0597
     11 C          44.7578   73.4542   20.5753 C.3     1  UNL1        0.0496
     12 C          44.7336   72.4812   19.4341 C.3     1  UNL1        0.1045
     13 N          45.0385   73.2365   18.1745 N.am    1  UNL1       -0.2430
     14 C          45.1170   72.6543   16.7943 C.2     1  UNL1        0.3115
     15 O          45.4331   73.5380   15.6243 O.2     1  UNL1       -0.2519
     16 N          44.8792   71.1881   16.5842 N.am    1  UNL1       -0.2666
     17 H          44.6717   70.6081   17.3522 H       1  UNL1        0.1565
     18 C          44.9577   70.6059   15.2041 C.ar    1  UNL1        0.0709
     19 C          46.1793   69.8461   14.7789 C.ar    1  UNL1        0.0179
     20 C          46.2578   69.2639   13.3988 C.ar    1  UNL1        0.0220
     21 C          45.1147   69.4413   12.4438 C.ar    1  UNL1        0.0990
     22 N          43.8932   70.2010   12.8690 N.ar    1  UNL1       -0.2410
     23 C          43.8147   70.7832   14.2491 C.ar    1  UNL1        0.1135
@<TRIPOS>BOND
     1     1     2    1
     2     2     3   ar
     3     3     4   ar
     4     4     5   ar
     5     5     6   ar
     6     6     7   ar
     7     7     8   ar
     8     8     9   ar
     9     9    10   ar
    10     8    11    1
    11    11    12    1
    12    12    13    1
    13    13    14   am
    14    14    15    2
    15    14    16   am
    16    16    18    1
    17    18    19   ar
    18    19    20   ar
    19    20    21   ar
    20    21    22   ar
    21    22    23   ar
    22    10     2   ar
    23    23    18   ar
    24    10     5   ar
    25    13     7    1
    26    16    17    1
@<TRIPOS>MOLECULE
*****
 23 26 0 0 0
SMALL
GASTEIGER

@<TRIPOS>ATOM
      1 C          64.3639   95.4399   -5.4361 C.3     1  UNL1        0.1305
      2 N          63.1860   94.9451   -4.6502 N.ar    1  UNL1       -0.3240
      3 C          61.7913   94.7641   -5.1716 C.ar    1  UNL1        0.0760
      4 C          60.9393   94.2516   -4.0485 C.ar    1  UNL1        0.0201
      5 C          61.8075   94.1158   -2.8328 C.ar    1  UNL1        0.0185
      6 C          61.5131   93.6572   -1.4353 C.ar    1  UNL1        0.0161
      7 C          62.6072   93.6273   -0.4097 C.ar    1  UNL1        0.0514
      8 C          63.9957   94.0558   -0.7815 C.ar    1  UNL1       -0.0053
      9 C          64.2902   94.5144   -2.1791 C.ar    1  UNL1        0.0142
     10 C          63.1960   94.5444   -3.2047 C.ar    1  UNL1        0.0597
     11 C          64.8639   93.9200    0.4341 C.3     1  UNL1        0.0496
     12 C          64.0120   93.4075    1.5573 C.3     1  UNL1        0.1045
     13 N          62.6172   93.2266    1.0357 N.am    1  UNL1       -0.2430
     14 C          61.4393   92.7318    1.8217 C.2     1  UNL1        0.3115
     15 O          60.0985   92.6020    1.1620 O.2     1  UNL1       -0.2519
     16 N          61.6023   92.3668    3.2675 N.am    1  UNL1       -0.2666
     17 H          62.4823   92.4520    3.7006 H       1  UNL1        0.1565
     18 C          60.4244   91.8720    4.0535 C.ar    1  UNL1        0.0709
     19 C          60.5883   90.7289    5.0109 C.ar    1  UNL1        0.0179
     20 C          59.4104   90.2341    5.7968 C.ar    1  UNL1        0.0220
     21 C          58.0686   90.8824    5.6254 C.ar    1  UNL1        0.0990
     22 N          57.9048   92.0255    4.6681 N.ar    1  UNL1       -0.2410
     23 C          59.0827   92.5203    3.8821 C.ar    1  UNL1        0.1135
@<TRIPOS>BOND
     1     1     2    1
     2     2     3   ar
     3     3     4   ar
     4     4     5   ar
     5     5     6   ar
     6     6     7   ar
     7     7     8   ar
     8     8     9   ar
     9     9    10   ar
    10     8    11    1
    11    11    12    1
    12    12    13    1
    13    13    14   am
    14    14    15    2
    15    14    16   am
    16    16    18    1
    17    18    19   ar
    18    19    20   ar
    19    20    21   ar
    20    21    22   ar
    21    22    23   ar
    22    10     2   ar
    23    23    18   ar
    24    10     5   ar
    25    13     7    1
    26    16    17    1
