@<TRIPOS>MOLECULE
*****
 39 43 0 0 0
SMALL
GASTEIGER

@<TRIPOS>ATOM
      1 C          62.0329   88.0254   10.7253 C.3     1  UNL1        0.0822
      2 C          62.5615   87.0842   11.7668 C.ar    1  UNL1        0.0375
      3 C          62.3110   85.6106   11.6424 C.ar    1  UNL1        0.0023
      4 C          62.8396   84.6693   12.6840 C.ar    1  UNL1        0.0181
      5 C          62.5891   83.1957   12.5595 C.ar    1  UNL1        0.0082
      6 C          63.1177   82.2545   13.6010 C.ar    1  UNL1        0.0347
      7 BR         62.8672   80.7808   13.4766 Br      1  UNL1       -0.0490
      8 C          63.8968   82.7871   14.7670 C.ar    1  UNL1        0.0082
      9 C          64.1473   84.2607   14.8914 C.ar    1  UNL1        0.0197
     10 C          63.6187   85.2019   13.8499 C.ar    1  UNL1        0.0844
     11 N          63.8692   86.6756   13.9743 N.ar    1  UNL1       -0.2119
     12 C          63.3406   87.6167   12.9328 C.ar    1  UNL1        0.2211
     13 O          63.5911   89.0905   13.0572 O.3     1  UNL1       -0.4563
     14 C          63.4382   89.7676   14.3869 C.3     1  UNL1        0.2542
     15 C          61.1710   87.5059    9.6130 C.ar    1  UNL1        0.0215
     16 C          59.7751   88.0268    9.4399 C.ar    1  UNL1       -0.0007
     17 C          58.9132   87.5073    8.3276 C.ar    1  UNL1        0.0030
     18 C          59.4472   86.4667    7.3884 C.ar    1  UNL1        0.0402
     19 C          60.8432   85.9457    7.5616 C.ar    1  UNL1        0.1761
     20 C          61.7051   86.4653    8.6739 C.ar    1  UNL1        0.1728
     21 O          63.0311   85.7685    8.5969 O.3     1  UNL1       -0.4349
     22 C          62.9888   84.8182    7.4371 C.3     1  UNL1        0.4294
     23 O          61.6365   84.9278    6.7972 O.3     1  UNL1       -0.4346
     24 C          62.3662   89.4862   10.7961 C.3     1  UNL1        0.1321
     25 O          63.7529   89.1936   10.3049 O.3     1  UNL1       -0.3805
     26 H          64.2551   90.0212   10.2422 H       1  UNL1        0.2108
     27 C          58.9398   89.1558   12.7712 C.ar    1  UNL1        0.2247
     28 C          58.2058   90.3640   12.2696 C.ar    1  UNL1        0.0577
     29 C          58.8587   91.2796   11.2769 C.ar    1  UNL1        0.0061
     30 C          60.2454   90.9870   10.7858 C.ar    1  UNL1        0.0173
     31 C          60.9794   89.7788   11.2873 C.ar    1  UNL1        0.0868
     32 N          60.3266   88.8633   12.2800 N.ar    1  UNL1       -0.2137
     33 C          56.8290   87.9119   13.6356 C.3     1  UNL1        0.2542
     34 O          58.2870   88.2402   13.7639 O.3     1  UNL1       -0.4561
     35 C          62.6995   90.9470   10.8669 C.3     1  UNL1        0.0506
     36 C          63.9334   91.4684   10.1919 C.3     1  UNL1        0.0750
     37 N          64.9368   92.2634   10.9736 N.3     1  UNL1       -0.2702
     38 C          65.8743   93.1939   10.2629 C.3     1  UNL1        0.0897
     39 C          65.0027   92.1280   12.4660 C.3     1  UNL1        0.0897
@<TRIPOS>BOND
     1    33    34    1
     2    34    27    1
     3    27    28   ar
     4    28    29   ar
     5    29    30   ar
     6    30    31   ar
     7    31    24    1
     8    24    25    1
     9    24    35    1
    10    35    36    1
    11    36    37    1
    12    37    38    1
    13    37    39    1
    14    24     1    1
    15     1     2    1
    16     2     3   ar
    17     3     4   ar
    18     4     5   ar
    19     5     6   ar
    20     6     7    1
    21     6     8   ar
    22     8     9   ar
    23     9    10   ar
    24    10    11   ar
    25    11    12   ar
    26    12    13    1
    27    13    14    1
    28     1    15    1
    29    15    16   ar
    30    16    17   ar
    31    17    18   ar
    32    18    19   ar
    33    19    20   ar
    34    20    21    1
    35    21    22    1
    36    22    23    1
    37    31    32   ar
    38    32    27   ar
    39    12     2   ar
    40    20    15   ar
    41    10     4   ar
    42    23    19    1
    43    25    26    1
@<TRIPOS>MOLECULE
*****
 39 43 0 0 0
SMALL
GASTEIGER

@<TRIPOS>ATOM
      1 C          62.3735   89.3393   12.3115 C.3     1  UNL1        0.0822
      2 C          62.8677   87.9713   12.6783 C.ar    1  UNL1        0.0375
      3 C          62.7481   86.8427   11.6976 C.ar    1  UNL1        0.0023
      4 C          63.2423   85.4747   12.0644 C.ar    1  UNL1        0.0181
      5 C          63.1226   84.3461   11.0837 C.ar    1  UNL1        0.0082
      6 C          63.6168   82.9782   11.4506 C.ar    1  UNL1        0.0347
      7 BR         63.4972   81.8495   10.4698 Br      1  UNL1       -0.0490
      8 C          64.2307   82.7390   12.7981 C.ar    1  UNL1        0.0082
      9 C          64.3504   83.8676   13.7788 C.ar    1  UNL1        0.0197
     10 C          63.8562   85.2355   13.4120 C.ar    1  UNL1        0.0844
     11 N          63.9758   86.3642   14.3927 N.ar    1  UNL1       -0.2119
     12 C          63.4816   87.7321   14.0258 C.ar    1  UNL1        0.2211
     13 O          63.6013   88.8608   15.0066 O.3     1  UNL1       -0.4563
     14 C          63.2088   88.6541   16.4395 C.3     1  UNL1        0.2542
     15 C          63.3395   90.3826   11.8339 C.ar    1  UNL1        0.0215
     16 C          63.5070   90.6331   10.3645 C.ar    1  UNL1       -0.0007
     17 C          64.4731   91.6765    9.8868 C.ar    1  UNL1        0.0030
     18 C          65.2716   92.4694   10.8786 C.ar    1  UNL1        0.0402
     19 C          65.1041   92.2188   12.3480 C.ar    1  UNL1        0.1761
     20 C          64.1381   91.1755   12.8256 C.ar    1  UNL1        0.1728
     21 O          64.1861   91.1509   14.3247 O.3     1  UNL1       -0.4349
     22 C          65.1818   92.1790   14.7735 C.3     1  UNL1        0.4294
     23 O          65.7492   92.8391   13.5518 O.3     1  UNL1       -0.4346
     24 C          60.9132   89.6638   12.4223 C.3     1  UNL1        0.1321
     25 O          61.1146   90.0829   13.8484 O.3     1  UNL1       -0.3805
     26 H          60.2677   90.3711   14.2234 H       1  UNL1        0.2108
     27 C          60.5490   87.3718    9.2030 C.ar    1  UNL1        0.2247
     28 C          60.3092   88.4066    8.1439 C.ar    1  UNL1        0.0577
     29 C          60.2707   89.8604    8.5109 C.ar    1  UNL1        0.0061
     30 C          60.4720   90.2795    9.9371 C.ar    1  UNL1        0.0173
     31 C          60.7119   89.2447   10.9961 C.ar    1  UNL1        0.0868
     32 N          60.7504   87.7909   10.6291 N.ar    1  UNL1       -0.2137
     33 C          60.5918   85.5085    7.3929 C.3     1  UNL1        0.2542
     34 O          60.5875   85.9178    8.8359 O.3     1  UNL1       -0.4561
     35 C          59.4530   89.9883   12.5331 C.3     1  UNL1        0.0506
     36 C          58.4283   88.9101   12.3398 C.3     1  UNL1        0.0750
     37 N          57.6945   88.3520   13.5231 N.3     1  UNL1       -0.2702
     38 C          58.4016   88.1901   14.8360 C.3     1  UNL1        0.0897
     39 C          56.2536   87.9558   13.3934 C.3     1  UNL1        0.0897
@<TRIPOS>BOND
     1    33    34    1
     2    34    27    1
     3    27    28   ar
     4    28    29   ar
     5    29    30   ar
     6    30    31   ar
     7    31    24    1
     8    24    25    1
     9    24    35    1
    10    35    36    1
    11    36    37    1
    12    37    38    1
    13    37    39    1
    14    24     1    1
    15     1     2    1
    16     2     3   ar
    17     3     4   ar
    18     4     5   ar
    19     5     6   ar
    20     6     7    1
    21     6     8   ar
    22     8     9   ar
    23     9    10   ar
    24    10    11   ar
    25    11    12   ar
    26    12    13    1
    27    13    14    1
    28     1    15    1
    29    15    16   ar
    30    16    17   ar
    31    17    18   ar
    32    18    19   ar
    33    19    20   ar
    34    20    21    1
    35    21    22    1
    36    22    23    1
    37    31    32   ar
    38    32    27   ar
    39    12     2   ar
    40    20    15   ar
    41    10     4   ar
    42    23    19    1
    43    25    26    1
@<TRIPOS>MOLECULE
*****
 39 43 0 0 0
SMALL
GASTEIGER

@<TRIPOS>ATOM
      1 C          63.1460   88.8201   12.1316 C.3     1  UNL1        0.0822
      2 C          62.1820   88.2765   11.1189 C.ar    1  UNL1        0.0375
      3 C          62.6547   87.3026   10.0807 C.ar    1  UNL1        0.0023
      4 C          61.6907   86.7591    9.0680 C.ar    1  UNL1        0.0181
      5 C          62.1634   85.7852    8.0297 C.ar    1  UNL1        0.0082
      6 C          61.1995   85.2418    7.0172 C.ar    1  UNL1        0.0347
      7 BR         61.6722   84.2678    5.9788 Br      1  UNL1       -0.0490
      8 C          59.7628   85.6722    7.0428 C.ar    1  UNL1        0.0082
      9 C          59.2901   86.6461    8.0811 C.ar    1  UNL1        0.0197
     10 C          60.2541   87.1896    9.0937 C.ar    1  UNL1        0.0844
     11 N          59.7814   88.1635   10.1320 N.ar    1  UNL1       -0.2119
     12 C          60.7453   88.7070   11.1446 C.ar    1  UNL1        0.2211
     13 O          60.2727   89.6810   12.1829 O.3     1  UNL1       -0.4563
     14 C          59.0243   90.4791   11.9494 C.3     1  UNL1        0.2542
     15 C          63.7348   87.9115   13.1697 C.ar    1  UNL1        0.0215
     16 C          64.7219   88.4484   14.1633 C.ar    1  UNL1       -0.0007
     17 C          65.3107   87.5398   15.2016 C.ar    1  UNL1        0.0030
     18 C          64.9124   86.0943   15.2461 C.ar    1  UNL1        0.0402
     19 C          63.9252   85.5574   14.2524 C.ar    1  UNL1        0.1761
     20 C          63.3364   86.4660   13.2142 C.ar    1  UNL1        0.1728
     21 O          62.3938   85.6583   12.3723 O.3     1  UNL1       -0.4349
     22 C          62.3999   84.2505   12.8901 C.3     1  UNL1        0.4294
     23 O          63.3464   84.1882   14.0521 O.3     1  UNL1       -0.4346
     24 C          63.5212   90.2722   12.1060 C.3     1  UNL1        0.1321
     25 O          63.6511   90.2123   10.6128 O.3     1  UNL1       -0.3805
     26 H          63.9079   91.0847   10.2754 H       1  UNL1        0.2108
     27 C          64.1788   91.2701   15.8904 C.ar    1  UNL1        0.2247
     28 C          63.1314   90.4517   16.5855 C.ar    1  UNL1        0.0577
     29 C          62.2140   89.5735   15.7874 C.ar    1  UNL1        0.0061
     30 C          62.3439   89.5136   14.2943 C.ar    1  UNL1        0.0173
     31 C          63.3913   90.3320   13.5992 C.ar    1  UNL1        0.0868
     32 N          64.3087   91.2103   14.3972 N.ar    1  UNL1       -0.2137
     33 C          66.3704   92.6527   16.0783 C.3     1  UNL1        0.2542
     34 O          65.0963   92.1484   16.6884 O.3     1  UNL1       -0.4561
     35 C          63.8964   91.7242   12.0804 C.3     1  UNL1        0.0506
     36 C          64.7130   92.2680   10.9458 C.3     1  UNL1        0.0750
     37 N          66.0391   92.9139   11.2182 N.3     1  UNL1       -0.2702
     38 C          67.1922   92.6808   10.2876 C.3     1  UNL1        0.0897
     39 C          66.2122   93.7929   12.4213 C.3     1  UNL1        0.0897
@<TRIPOS>BOND
     1    33    34    1
     2    34    27    1
     3    27    28   ar
     4    28    29   ar
     5    29    30   ar
     6    30    31   ar
     7    31    24    1
     8    24    25    1
     9    24    35    1
    10    35    36    1
    11    36    37    1
    12    37    38    1
    13    37    39    1
    14    24     1    1
    15     1     2    1
    16     2     3   ar
    17     3     4   ar
    18     4     5   ar
    19     5     6   ar
    20     6     7    1
    21     6     8   ar
    22     8     9   ar
    23     9    10   ar
    24    10    11   ar
    25    11    12   ar
    26    12    13    1
    27    13    14    1
    28     1    15    1
    29    15    16   ar
    30    16    17   ar
    31    17    18   ar
    32    18    19   ar
    33    19    20   ar
    34    20    21    1
    35    21    22    1
    36    22    23    1
    37    31    32   ar
    38    32    27   ar
    39    12     2   ar
    40    20    15   ar
    41    10     4   ar
    42    23    19    1
    43    25    26    1
@<TRIPOS>MOLECULE
*****
 39 43 0 0 0
SMALL
GASTEIGER

@<TRIPOS>ATOM
      1 C          63.6333   89.6402   13.7464 C.3     1  UNL1        0.0822
      2 C          63.6765   88.1475   13.8878 C.ar    1  UNL1        0.0375
      3 C          63.5870   87.2758   12.6704 C.ar    1  UNL1        0.0023
      4 C          63.6302   85.7831   12.8119 C.ar    1  UNL1        0.0181
      5 C          63.5407   84.9115   11.5944 C.ar    1  UNL1        0.0082
      6 C          63.5839   83.4188   11.7359 C.ar    1  UNL1        0.0347
      7 BR         63.4944   82.5471   10.5184 Br      1  UNL1       -0.0490
      8 C          63.7166   82.7978   13.0948 C.ar    1  UNL1        0.0082
      9 C          63.8061   83.6694   14.3123 C.ar    1  UNL1        0.0197
     10 C          63.7629   85.1621   14.1708 C.ar    1  UNL1        0.0844
     11 N          63.8524   86.0338   15.3883 N.ar    1  UNL1       -0.2119
     12 C          63.8092   87.5264   15.2468 C.ar    1  UNL1        0.2211
     13 O          63.8987   88.3981   16.4643 O.3     1  UNL1       -0.4563
     14 C          62.9219   88.2190   17.5884 C.3     1  UNL1        0.2542
     15 C          64.7236   90.4817   14.3406 C.ar    1  UNL1        0.0215
     16 C          66.1090   90.4275   13.7683 C.ar    1  UNL1       -0.0007
     17 C          67.1994   91.2691   14.3625 C.ar    1  UNL1        0.0030
     18 C          66.9042   92.1648   15.5289 C.ar    1  UNL1        0.0402
     19 C          65.5186   92.2190   16.1012 C.ar    1  UNL1        0.1761
     20 C          64.4284   91.3775   15.5070 C.ar    1  UNL1        0.1728
     21 O          63.1686   91.6390   16.2781 O.3     1  UNL1       -0.4349
     22 C          63.4803   92.6422   17.3488 C.3     1  UNL1        0.4294
     23 O          64.9327   93.0006   17.2394 O.3     1  UNL1       -0.4346
     24 C          62.4998   90.2913   13.0107 C.3     1  UNL1        0.1321
     25 O          61.5175   89.5548   13.8724 O.3     1  UNL1       -0.3805
     26 H          60.6146   89.7930   13.6096 H       1  UNL1        0.2108
     27 C          65.2292   92.9270   11.8473 C.ar    1  UNL1        0.2247
     28 C          65.4468   92.5010   10.4257 C.ar    1  UNL1        0.0577
     29 C          64.6821   91.3384    9.8657 C.ar    1  UNL1        0.0061
     30 C          63.6998   90.6019   10.7274 C.ar    1  UNL1        0.0173
     31 C          63.4821   91.0279   12.1490 C.ar    1  UNL1        0.0868
     32 N          64.2468   92.1905   12.7090 N.ar    1  UNL1       -0.2137
     33 C          66.2529   95.2971   11.5558 C.3     1  UNL1        0.2542
     34 O          65.9939   94.0897   12.4073 O.3     1  UNL1       -0.4561
     35 C          61.3663   90.9424   12.2751 C.3     1  UNL1        0.0506
     36 C          60.1853   90.1253   11.8423 C.3     1  UNL1        0.0750
     37 N          60.3324   89.1206   10.7382 N.3     1  UNL1       -0.2702
     38 C          60.3758   89.5768    9.3099 C.3     1  UNL1        0.0897
     39 C          60.4362   87.6598   11.0624 C.3     1  UNL1        0.0897
@<TRIPOS>BOND
     1    33    34    1
     2    34    27    1
     3    27    28   ar
     4    28    29   ar
     5    29    30   ar
     6    30    31   ar
     7    31    24    1
     8    24    25    1
     9    24    35    1
    10    35    36    1
    11    36    37    1
    12    37    38    1
    13    37    39    1
    14    24     1    1
    15     1     2    1
    16     2     3   ar
    17     3     4   ar
    18     4     5   ar
    19     5     6   ar
    20     6     7    1
    21     6     8   ar
    22     8     9   ar
    23     9    10   ar
    24    10    11   ar
    25    11    12   ar
    26    12    13    1
    27    13    14    1
    28     1    15    1
    29    15    16   ar
    30    16    17   ar
    31    17    18   ar
    32    18    19   ar
    33    19    20   ar
    34    20    21    1
    35    21    22    1
    36    22    23    1
    37    31    32   ar
    38    32    27   ar
    39    12     2   ar
    40    20    15   ar
    41    10     4   ar
    42    23    19    1
    43    25    26    1
@<TRIPOS>MOLECULE
*****
 39 43 0 0 0
SMALL
GASTEIGER

@<TRIPOS>ATOM
      1 C          62.8936   88.4300   12.8797 C.3     1  UNL1        0.0822
      2 C          63.7184   89.6808   12.8075 C.ar    1  UNL1        0.0375
      3 C          64.6218   90.0503   13.9465 C.ar    1  UNL1        0.0023
      4 C          65.4467   91.3011   13.8742 C.ar    1  UNL1        0.0181
      5 C          66.3501   91.6705   15.0132 C.ar    1  UNL1        0.0082
      6 C          67.1749   92.9213   14.9409 C.ar    1  UNL1        0.0347
      7 BR         68.0784   93.2908   16.0799 Br      1  UNL1       -0.0490
      8 C          67.0963   93.8026   13.7297 C.ar    1  UNL1        0.0082
      9 C          66.1929   93.4332   12.5907 C.ar    1  UNL1        0.0197
     10 C          65.3681   92.1824   12.6630 C.ar    1  UNL1        0.0844
     11 N          64.4646   91.8129   11.5240 N.ar    1  UNL1       -0.2119
     12 C          63.6398   90.5621   11.5962 C.ar    1  UNL1        0.2211
     13 O          62.7363   90.1926   10.4572 O.3     1  UNL1       -0.4563
     14 C          62.5252   91.1538    9.3252 C.3     1  UNL1        0.2542
     15 C          63.3986   87.2416   13.6430 C.ar    1  UNL1        0.0215
     16 C          64.0554   86.1065   12.9149 C.ar    1  UNL1       -0.0007
     17 C          64.5605   84.9180   13.6781 C.ar    1  UNL1        0.0030
     18 C          64.4087   84.8647   15.1695 C.ar    1  UNL1        0.0402
     19 C          63.7519   85.9999   15.8976 C.ar    1  UNL1        0.1761
     20 C          63.2469   87.1883   15.1343 C.ar    1  UNL1        0.1728
     21 O          62.6468   88.1495   16.1172 O.3     1  UNL1       -0.4349
     22 C          62.7811   87.5551   17.4878 C.3     1  UNL1        0.4294
     23 O          63.4640   86.2266   17.3521 O.3     1  UNL1       -0.4346
     24 C          61.5637   88.3677   12.1887 C.3     1  UNL1        0.1321
     25 O          61.0927   89.5458   12.9888 O.3     1  UNL1       -0.3805
     26 H          60.1804   89.7617   12.7400 H       1  UNL1        0.2108
     27 C          62.3363   84.6222   11.1281 C.ar    1  UNL1        0.2247
     28 C          62.9767   84.8333    9.7882 C.ar    1  UNL1        0.0577
     29 C          63.1460   86.2226    9.2485 C.ar    1  UNL1        0.0061
     30 C          62.6750   87.4007   10.0487 C.ar    1  UNL1        0.0173
     31 C          62.0347   87.1896   11.3885 C.ar    1  UNL1        0.0868
     32 N          61.8653   85.8003   11.9283 N.ar    1  UNL1       -0.2137
     33 C          63.2356   82.2050   11.4418 C.3     1  UNL1        0.2542
     34 O          62.1669   83.2330   11.6679 O.3     1  UNL1       -0.4561
     35 C          60.2338   88.3053   11.4976 C.3     1  UNL1        0.0506
     36 C          59.9839   89.1382   10.2754 C.3     1  UNL1        0.0750
     37 N          59.7111   88.4742    8.9583 N.3     1  UNL1       -0.2702
     38 C          59.3843   87.0111    8.9095 C.3     1  UNL1        0.0897
     39 C          59.7650   89.2733    7.6901 C.3     1  UNL1        0.0897
@<TRIPOS>BOND
     1    33    34    1
     2    34    27    1
     3    27    28   ar
     4    28    29   ar
     5    29    30   ar
     6    30    31   ar
     7    31    24    1
     8    24    25    1
     9    24    35    1
    10    35    36    1
    11    36    37    1
    12    37    38    1
    13    37    39    1
    14    24     1    1
    15     1     2    1
    16     2     3   ar
    17     3     4   ar
    18     4     5   ar
    19     5     6   ar
    20     6     7    1
    21     6     8   ar
    22     8     9   ar
    23     9    10   ar
    24    10    11   ar
    25    11    12   ar
    26    12    13    1
    27    13    14    1
    28     1    15    1
    29    15    16   ar
    30    16    17   ar
    31    17    18   ar
    32    18    19   ar
    33    19    20   ar
    34    20    21    1
    35    21    22    1
    36    22    23    1
    37    31    32   ar
    38    32    27   ar
    39    12     2   ar
    40    20    15   ar
    41    10     4   ar
    42    23    19    1
    43    25    26    1
@<TRIPOS>MOLECULE
*****
 39 43 0 0 0
SMALL
GASTEIGER

@<TRIPOS>ATOM
      1 C          63.0089   88.3925   11.6880 C.3     1  UNL1        0.0822
      2 C          63.6108   89.7461   11.9241 C.ar    1  UNL1        0.0375
      3 C          64.4022   90.4146   10.8393 C.ar    1  UNL1        0.0023
      4 C          65.0040   91.7681   11.0753 C.ar    1  UNL1        0.0181
      5 C          65.7954   92.4366    9.9905 C.ar    1  UNL1        0.0082
      6 C          66.3972   93.7901   10.2266 C.ar    1  UNL1        0.0347
      7 BR         67.1887   94.4586    9.1417 Br      1  UNL1       -0.0490
      8 C          66.2077   94.4751   11.5475 C.ar    1  UNL1        0.0082
      9 C          65.4163   93.8067   12.6323 C.ar    1  UNL1        0.0197
     10 C          64.8145   92.4532   12.3962 C.ar    1  UNL1        0.0844
     11 N          64.0231   91.7847   13.4810 N.ar    1  UNL1       -0.2119
     12 C          63.4212   90.4312   13.2450 C.ar    1  UNL1        0.2211
     13 O          62.6298   89.7627   14.3298 O.3     1  UNL1       -0.4563
     14 C          62.9524   90.0339   15.7694 C.3     1  UNL1        0.2542
     15 C          63.2580   87.2805   12.6634 C.ar    1  UNL1        0.0215
     16 C          63.9099   87.5720   13.9825 C.ar    1  UNL1       -0.0007
     17 C          64.1590   86.4599   14.9579 C.ar    1  UNL1        0.0030
     18 C          63.7562   85.0565   14.6142 C.ar    1  UNL1        0.0402
     19 C          63.1042   84.7651   13.2950 C.ar    1  UNL1        0.1761
     20 C          62.8551   85.8771   12.3196 C.ar    1  UNL1        0.1728
     21 O          62.1990   85.2901   11.1052 O.3     1  UNL1       -0.4349
     22 C          62.0426   83.8154   11.3300 C.3     1  UNL1        0.4294
     23 O          62.6021   83.4909   12.6834 O.3     1  UNL1       -0.4346
     24 C          62.1579   88.1510   10.4766 C.3     1  UNL1        0.1321
     25 O          63.2727   87.3672    9.8498 O.3     1  UNL1       -0.3805
     26 H          62.9942   87.0510    8.9761 H       1  UNL1        0.2108
     27 C          59.0431   89.0750   12.7556 C.ar    1  UNL1        0.2247
     28 C          58.8137   90.5027   12.3570 C.ar    1  UNL1        0.0577
     29 C          59.6991   91.1465   11.3316 C.ar    1  UNL1        0.0061
     30 C          60.8138   90.3626   10.7048 C.ar    1  UNL1        0.0173
     31 C          61.0432   88.9349   11.1034 C.ar    1  UNL1        0.0868
     32 N          60.1578   88.2911   12.1288 N.ar    1  UNL1       -0.2137
     33 C          56.7253   88.1303   13.4525 C.3     1  UNL1        0.2542
     34 O          58.1576   88.4310   13.7811 O.3     1  UNL1       -0.4561
     35 C          61.3070   87.9096    9.2652 C.3     1  UNL1        0.0506
     36 C          61.5332   86.6908    8.4205 C.3     1  UNL1        0.0750
     37 N          60.4058   86.1170    7.6145 N.3     1  UNL1       -0.2702
     38 C          60.6531   84.9528    6.7016 C.3     1  UNL1        0.0897
     39 C          59.0310   86.7074    7.7215 C.3     1  UNL1        0.0897
@<TRIPOS>BOND
     1    33    34    1
     2    34    27    1
     3    27    28   ar
     4    28    29   ar
     5    29    30   ar
     6    30    31   ar
     7    31    24    1
     8    24    25    1
     9    24    35    1
    10    35    36    1
    11    36    37    1
    12    37    38    1
    13    37    39    1
    14    24     1    1
    15     1     2    1
    16     2     3   ar
    17     3     4   ar
    18     4     5   ar
    19     5     6   ar
    20     6     7    1
    21     6     8   ar
    22     8     9   ar
    23     9    10   ar
    24    10    11   ar
    25    11    12   ar
    26    12    13    1
    27    13    14    1
    28     1    15    1
    29    15    16   ar
    30    16    17   ar
    31    17    18   ar
    32    18    19   ar
    33    19    20   ar
    34    20    21    1
    35    21    22    1
    36    22    23    1
    37    31    32   ar
    38    32    27   ar
    39    12     2   ar
    40    20    15   ar
    41    10     4   ar
    42    23    19    1
    43    25    26    1
@<TRIPOS>MOLECULE
*****
 39 43 0 0 0
SMALL
GASTEIGER

@<TRIPOS>ATOM
      1 C          62.8280   89.6379   12.2017 C.3     1  UNL1        0.0822
      2 C          63.1648   88.6349   13.2651 C.ar    1  UNL1        0.0375
      3 C          63.5064   87.2248   12.8848 C.ar    1  UNL1        0.0023
      4 C          63.8431   86.2218   13.9481 C.ar    1  UNL1        0.0181
      5 C          64.1847   84.8116   13.5678 C.ar    1  UNL1        0.0082
      6 C          64.5215   83.8087   14.6312 C.ar    1  UNL1        0.0347
      7 BR         64.8631   82.3984   14.2509 Br      1  UNL1       -0.0490
      8 C          64.5166   84.2160   16.0748 C.ar    1  UNL1        0.0082
      9 C          64.1750   85.6261   16.4551 C.ar    1  UNL1        0.0197
     10 C          63.8382   86.6290   15.3918 C.ar    1  UNL1        0.0844
     11 N          63.4966   88.0393   15.7720 N.ar    1  UNL1       -0.2119
     12 C          63.1599   89.0422   14.7087 C.ar    1  UNL1        0.2211
     13 O          62.8182   90.4525   15.0890 O.3     1  UNL1       -0.4563
     14 C          63.3163   91.0215   16.3844 C.3     1  UNL1        0.2542
     15 C          63.8148   90.7084   11.8409 C.ar    1  UNL1        0.0215
     16 C          63.6670   91.4611   10.5519 C.ar    1  UNL1       -0.0007
     17 C          64.6538   92.5317   10.1910 C.ar    1  UNL1        0.0030
     18 C          65.7885   92.8494   11.1192 C.ar    1  UNL1        0.0402
     19 C          65.9363   92.0966   12.4083 C.ar    1  UNL1        0.1761
     20 C          64.9495   91.0262   12.7691 C.ar    1  UNL1        0.1728
     21 O          65.3488   90.4565   14.0980 O.3     1  UNL1       -0.4349
     22 C          66.5824   91.1750   14.5585 C.3     1  UNL1        0.4294
     23 O          66.9455   92.1886   13.5141 O.3     1  UNL1       -0.4346
     24 C          61.5044   89.5704   11.4992 C.3     1  UNL1        0.1321
     25 O          61.1030   90.8705   12.1305 O.3     1  UNL1       -0.3805
     26 H          60.2094   91.1095   11.8383 H       1  UNL1        0.2108
     27 C          61.9355   85.6725   10.8904 C.ar    1  UNL1        0.2247
     28 C          62.7088   85.6701    9.6051 C.ar    1  UNL1        0.0577
     29 C          63.0806   86.9678    8.9512 C.ar    1  UNL1        0.0061
     30 C          62.6792   88.2679    9.5826 C.ar    1  UNL1        0.0173
     31 C          61.9059   88.2703   10.8678 C.ar    1  UNL1        0.0868
     32 N          61.5340   86.9726   11.5217 N.ar    1  UNL1       -0.2137
     33 C          62.4586   83.1795   11.4018 C.3     1  UNL1        0.2542
     34 O          61.5636   84.3747   11.5444 O.3     1  UNL1       -0.4561
     35 C          60.1808   89.5028   10.7966 C.3     1  UNL1        0.0506
     36 C          60.0748   89.9074    9.3562 C.3     1  UNL1        0.0750
     37 N          59.5820   88.9249    8.3355 N.3     1  UNL1       -0.2702
     38 C          59.3737   89.3598    6.9152 C.3     1  UNL1        0.0897
     39 C          59.2974   87.5074    8.7352 C.3     1  UNL1        0.0897
@<TRIPOS>BOND
     1    33    34    1
     2    34    27    1
     3    27    28   ar
     4    28    29   ar
     5    29    30   ar
     6    30    31   ar
     7    31    24    1
     8    24    25    1
     9    24    35    1
    10    35    36    1
    11    36    37    1
    12    37    38    1
    13    37    39    1
    14    24     1    1
    15     1     2    1
    16     2     3   ar
    17     3     4   ar
    18     4     5   ar
    19     5     6   ar
    20     6     7    1
    21     6     8   ar
    22     8     9   ar
    23     9    10   ar
    24    10    11   ar
    25    11    12   ar
    26    12    13    1
    27    13    14    1
    28     1    15    1
    29    15    16   ar
    30    16    17   ar
    31    17    18   ar
    32    18    19   ar
    33    19    20   ar
    34    20    21    1
    35    21    22    1
    36    22    23    1
    37    31    32   ar
    38    32    27   ar
    39    12     2   ar
    40    20    15   ar
    41    10     4   ar
    42    23    19    1
    43    25    26    1
