@<TRIPOS>MOLECULE
*****
 33 37 0 0 0
SMALL
GASTEIGER

@<TRIPOS>ATOM
      1 C          62.7749   86.9482   11.9534 C.2     1  UNL1        0.2506
      2 O          63.5904   87.5552   13.0564 O.2     1  UNL1       -0.2699
      3 N          61.7673   87.7824   11.2195 N.am    1  UNL1       -0.2723
      4 C          60.9517   87.1755   10.1165 C.3     1  UNL1        0.1257
      5 C          59.9441   88.0097    9.3826 C.3     1  UNL1        0.1637
      6 O          59.7519   89.4509    9.7516 O.3     1  UNL1       -0.3502
      7 C          60.5675   90.0578   10.8545 C.3     1  UNL1        0.1622
      8 C          61.5752   89.2236   11.5885 C.3     1  UNL1        0.1096
      9 C          63.5434   81.1836   10.4775 C.3     1  UNL1        0.0311
     10 C          63.3513   82.6248   10.8465 C.ar    1  UNL1       -0.0203
     11 C          63.1917   83.6592    9.7720 C.ar    1  UNL1       -0.0040
     12 C          62.9995   85.1003   10.1410 C.ar    1  UNL1        0.0058
     13 C          62.9671   85.5071   11.5844 C.ar    1  UNL1        0.0729
     14 C          63.1267   84.4726   12.6589 C.ar    1  UNL1        0.1069
     15 C          63.3188   83.0315   12.2899 C.ar    1  UNL1        0.0168
     16 N          63.0942   84.8793   14.1024 N.ar    1  UNL1       -0.1477
     17 N          64.2442   85.4377   14.8871 N.ar    1  UNL1       -0.1447
     18 C          63.7669   85.7025   16.2843 C.ar    1  UNL1        0.1446
     19 C          62.3218   85.3078   16.3629 C.ar    1  UNL1        0.1446
     20 N          61.9061   84.7991   15.0145 N.ar    1  UNL1       -0.1447
     21 C          62.3907   89.8305   12.6914 C.3     1  UNL1        0.0496
     22 C          63.5444   90.7310   12.3628 C.ar    1  UNL1       -0.0083
     23 C          64.5419   91.0895   13.4241 C.ar    1  UNL1        0.0175
     24 C          65.6957   91.9900   13.0955 C.ar    1  UNL1        0.1026
     25 C          65.8520   92.5319   11.7056 C.ar    1  UNL1        0.0218
     26 C          64.8545   92.1734   10.6443 C.ar    1  UNL1        0.0127
     27 C          63.7007   91.2729   10.9729 C.ar    1  UNL1        0.0538
     28 CL         62.7032   90.9144    9.9115 Cl      1  UNL1       -0.0826
     29 N          66.6933   92.3486   14.1569 N.ar    1  UNL1       -0.1478
     30 N          68.1655   92.5495   13.9514 N.ar    1  UNL1       -0.1447
     31 C          68.7758   92.8942   15.2775 C.ar    1  UNL1        0.1446
     32 C          67.6808   92.9063   16.3026 C.ar    1  UNL1        0.1446
     33 N          66.3937   92.5691   15.6100 N.ar    1  UNL1       -0.1447
@<TRIPOS>BOND
     1     9    10    1
     2    10    11   ar
     3    11    12   ar
     4    12    13   ar
     5    13     1    1
     6     1     2    2
     7     1     3   am
     8     3     4    1
     9     4     5    1
    10     5     6    1
    11     6     7    1
    12     7     8    1
    13     8    21    1
    14    21    22    1
    15    22    23   ar
    16    23    24   ar
    17    24    29    1
    18    29    30   ar
    19    30    31   ar
    20    31    32   ar
    21    32    33   ar
    22    24    25   ar
    23    25    26   ar
    24    26    27   ar
    25    27    28    1
    26    13    14   ar
    27    14    16    1
    28    16    17   ar
    29    17    18   ar
    30    18    19   ar
    31    19    20   ar
    32    14    15   ar
    33    15    10   ar
    34     8     3    1
    35    27    22   ar
    36    20    16   ar
    37    33    29   ar
@<TRIPOS>MOLECULE
*****
 33 37 0 0 0
SMALL
GASTEIGER

@<TRIPOS>ATOM
      1 C          63.0128   87.1246   12.3802 C.2     1  UNL1        0.2506
      2 O          63.5409   87.4957   13.7342 O.2     1  UNL1       -0.2699
      3 N          62.3893   88.1717   11.5057 N.am    1  UNL1       -0.2723
      4 C          61.8611   87.8006   10.1516 C.3     1  UNL1        0.1257
      5 C          61.2376   88.8476    9.2770 C.3     1  UNL1        0.1637
      6 O          61.1422   90.2657    9.7564 O.3     1  UNL1       -0.3502
      7 C          61.6703   90.6368   11.1104 C.3     1  UNL1        0.1622
      8 C          62.2938   89.5898   11.9851 C.3     1  UNL1        0.1096
      9 C          63.3945   81.4522   10.4625 C.3     1  UNL1        0.0311
     10 C          63.2991   82.8703   10.9419 C.ar    1  UNL1       -0.0203
     11 C          63.2412   83.9948    9.9509 C.ar    1  UNL1       -0.0040
     12 C          63.1458   85.4129   10.4303 C.ar    1  UNL1        0.0058
     13 C          63.1082   85.7065   11.9008 C.ar    1  UNL1        0.0729
     14 C          63.1660   84.5821   12.8918 C.ar    1  UNL1        0.1069
     15 C          63.2614   83.1640   12.4124 C.ar    1  UNL1        0.0168
     16 N          63.1284   84.8757   14.3624 N.ar    1  UNL1       -0.1477
     17 N          61.9068   84.8642   15.2328 N.ar    1  UNL1       -0.1447
     18 C          62.3291   85.2137   16.6290 C.ar    1  UNL1        0.1446
     19 C          63.8118   85.4412   16.6215 C.ar    1  UNL1        0.1446
     20 N          64.3057   85.2323   15.2207 N.ar    1  UNL1       -0.1447
     21 C          62.8219   89.9609   13.3391 C.3     1  UNL1        0.0496
     22 C          64.0260   90.8475   13.4574 C.ar    1  UNL1       -0.0083
     23 C          64.6545   91.4272   12.2249 C.ar    1  UNL1        0.0175
     24 C          65.8586   92.3139   12.3432 C.ar    1  UNL1        0.1026
     25 C          66.4342   92.6209   13.6939 C.ar    1  UNL1        0.0218
     26 C          65.8057   92.0412   14.9263 C.ar    1  UNL1        0.0127
     27 C          64.6016   91.1545   14.8080 C.ar    1  UNL1        0.0538
     28 CL         63.9731   90.5748   16.0406 Cl      1  UNL1       -0.0826
     29 N          66.4870   92.8936   11.1107 N.ar    1  UNL1       -0.1478
     30 N          67.7383   92.4027   10.4447 N.ar    1  UNL1       -0.1447
     31 C          67.9992   93.2716    9.2502 C.ar    1  UNL1        0.1446
     32 C          66.9092   94.2996    9.1779 C.ar    1  UNL1        0.1446
     33 N          65.9746   94.0660   10.3277 N.ar    1  UNL1       -0.1447
@<TRIPOS>BOND
     1     9    10    1
     2    10    11   ar
     3    11    12   ar
     4    12    13   ar
     5    13     1    1
     6     1     2    2
     7     1     3   am
     8     3     4    1
     9     4     5    1
    10     5     6    1
    11     6     7    1
    12     7     8    1
    13     8    21    1
    14    21    22    1
    15    22    23   ar
    16    23    24   ar
    17    24    29    1
    18    29    30   ar
    19    30    31   ar
    20    31    32   ar
    21    32    33   ar
    22    24    25   ar
    23    25    26   ar
    24    26    27   ar
    25    27    28    1
    26    13    14   ar
    27    14    16    1
    28    16    17   ar
    29    17    18   ar
    30    18    19   ar
    31    19    20   ar
    32    14    15   ar
    33    15    10   ar
    34     8     3    1
    35    27    22   ar
    36    20    16   ar
    37    33    29   ar
@<TRIPOS>MOLECULE
*****
 33 37 0 0 0
SMALL
GASTEIGER

@<TRIPOS>ATOM
      1 C          65.0390   91.3547   12.7193 C.2     1  UNL1        0.2506
      2 O          65.8192   90.8879   13.9124 O.2     1  UNL1       -0.2699
      3 N          63.9011   90.5285   12.1974 N.am    1  UNL1       -0.2723
      4 C          63.1208   90.9952   11.0043 C.3     1  UNL1        0.1257
      5 C          61.9829   90.1690   10.4823 C.3     1  UNL1        0.1637
      6 O          61.6252   88.8761   11.1534 O.3     1  UNL1       -0.3502
      7 C          62.4054   88.4093   12.3464 C.3     1  UNL1        0.1622
      8 C          63.5434   89.2355   12.8684 C.3     1  UNL1        0.1096
      9 C          66.4699   96.5265   10.0351 C.3     1  UNL1        0.0311
     10 C          66.1122   95.2335   10.7061 C.ar    1  UNL1       -0.0203
     11 C          65.1931   94.2638   10.0243 C.ar    1  UNL1       -0.0040
     12 C          64.8354   92.9709   10.6954 C.ar    1  UNL1        0.0058
     13 C          65.3967   92.6476   12.0483 C.ar    1  UNL1        0.0729
     14 C          66.3158   93.6173   12.7301 C.ar    1  UNL1        0.1069
     15 C          66.6735   94.9103   12.0590 C.ar    1  UNL1        0.0168
     16 N          66.8772   93.2941   14.0830 N.ar    1  UNL1       -0.1477
     17 N          68.3056   92.9500   14.3857 N.ar    1  UNL1       -0.1447
     18 C          68.4200   92.7015   15.8605 C.ar    1  UNL1        0.1446
     19 C          67.0624   92.8919   16.4693 C.ar    1  UNL1        0.1446
     20 N          66.1089   93.2581   15.3708 N.ar    1  UNL1       -0.1447
     21 C          64.3236   88.7688   14.0614 C.3     1  UNL1        0.0496
     22 C          63.9226   87.5116   14.7748 C.ar    1  UNL1       -0.0083
     23 C          64.0522   86.1850   14.0868 C.ar    1  UNL1        0.0175
     24 C          63.6513   84.9279   14.8002 C.ar    1  UNL1        0.1026
     25 C          63.1207   84.9974   16.2015 C.ar    1  UNL1        0.0218
     26 C          62.9911   86.3240   16.8894 C.ar    1  UNL1        0.0127
     27 C          63.3921   87.5811   16.1761 C.ar    1  UNL1        0.0538
     28 CL         63.2624   88.9077   16.8641 Cl      1  UNL1       -0.0826
     29 N          63.7809   83.6013   14.1122 N.ar    1  UNL1       -0.1478
     30 N          63.3924   82.2700   14.6838 N.ar    1  UNL1       -0.1447
     31 C          63.6932   81.2189   13.6567 C.ar    1  UNL1        0.1446
     32 C          64.2676   81.9007   12.4503 C.ar    1  UNL1        0.1446
     33 N          64.3218   83.3730   12.7318 N.ar    1  UNL1       -0.1447
@<TRIPOS>BOND
     1     9    10    1
     2    10    11   ar
     3    11    12   ar
     4    12    13   ar
     5    13     1    1
     6     1     2    2
     7     1     3   am
     8     3     4    1
     9     4     5    1
    10     5     6    1
    11     6     7    1
    12     7     8    1
    13     8    21    1
    14    21    22    1
    15    22    23   ar
    16    23    24   ar
    17    24    29    1
    18    29    30   ar
    19    30    31   ar
    20    31    32   ar
    21    32    33   ar
    22    24    25   ar
    23    25    26   ar
    24    26    27   ar
    25    27    28    1
    26    13    14   ar
    27    14    16    1
    28    16    17   ar
    29    17    18   ar
    30    18    19   ar
    31    19    20   ar
    32    14    15   ar
    33    15    10   ar
    34     8     3    1
    35    27    22   ar
    36    20    16   ar
    37    33    29   ar
@<TRIPOS>MOLECULE
*****
 33 37 0 0 0
SMALL
GASTEIGER

@<TRIPOS>ATOM
      1 C          63.4500   87.4715   13.1676 C.2     1  UNL1        0.2506
      2 O          63.4361   88.1407   11.8253 O.2     1  UNL1       -0.2699
      3 N          63.3651   88.2961   14.4177 N.am    1  UNL1       -0.2723
      4 C          63.3790   87.6269   15.7601 C.3     1  UNL1        0.1257
      5 C          63.2941   88.4515   17.0101 C.3     1  UNL1        0.1637
      6 O          63.1954   89.9454   16.9179 O.3     1  UNL1       -0.3502
      7 C          63.1816   90.6147   15.5756 C.3     1  UNL1        0.1622
      8 C          63.2664   89.7900   14.3254 C.3     1  UNL1        0.1096
      9 C          63.8448   81.4959   13.5366 C.3     1  UNL1        0.0311
     10 C          63.7461   82.9898   13.4443 C.ar    1  UNL1       -0.0203
     11 C          64.4254   83.8509   14.4675 C.ar    1  UNL1       -0.0040
     12 C          64.3267   85.3448   14.3753 C.ar    1  UNL1        0.0058
     13 C          63.5487   85.9776   13.2598 C.ar    1  UNL1        0.0729
     14 C          62.8694   85.1164   12.2367 C.ar    1  UNL1        0.1069
     15 C          62.9681   83.6225   12.3289 C.ar    1  UNL1        0.0168
     16 N          62.0913   85.7492   11.1212 N.ar    1  UNL1       -0.1477
     17 N          62.4047   85.6452    9.6579 N.ar    1  UNL1       -0.1447
     18 C          61.3704   86.4287    8.9055 C.ar    1  UNL1        0.1446
     19 C          60.4177   87.0170    9.9037 C.ar    1  UNL1        0.1446
     20 N          60.8633   86.5971   11.2730 N.ar    1  UNL1       -0.1447
     21 C          63.2525   90.4593   12.9831 C.3     1  UNL1        0.0496
     22 C          64.3894   91.3497   12.5772 C.ar    1  UNL1       -0.0083
     23 C          65.4566   91.7032   13.5702 C.ar    1  UNL1        0.0175
     24 C          66.5934   92.5936   13.1643 C.ar    1  UNL1        0.1026
     25 C          66.6630   93.1306   11.7655 C.ar    1  UNL1        0.0218
     26 C          65.5958   92.7771   10.7725 C.ar    1  UNL1        0.0127
     27 C          64.4590   91.8867   11.1784 C.ar    1  UNL1        0.0538
     28 CL         63.3917   91.5332   10.1854 Cl      1  UNL1       -0.0826
     29 N          67.6607   92.9471   14.1573 N.ar    1  UNL1       -0.1478
     30 N          69.0790   92.4590   14.1386 N.ar    1  UNL1       -0.1447
     31 C          69.7919   93.0609   15.3131 C.ar    1  UNL1        0.1446
     32 C          68.8142   93.9211   16.0577 C.ar    1  UNL1        0.1446
     33 N          67.4971   93.8507   15.3434 N.ar    1  UNL1       -0.1447
@<TRIPOS>BOND
     1     9    10    1
     2    10    11   ar
     3    11    12   ar
     4    12    13   ar
     5    13     1    1
     6     1     2    2
     7     1     3   am
     8     3     4    1
     9     4     5    1
    10     5     6    1
    11     6     7    1
    12     7     8    1
    13     8    21    1
    14    21    22    1
    15    22    23   ar
    16    23    24   ar
    17    24    29    1
    18    29    30   ar
    19    30    31   ar
    20    31    32   ar
    21    32    33   ar
    22    24    25   ar
    23    25    26   ar
    24    26    27   ar
    25    27    28    1
    26    13    14   ar
    27    14    16    1
    28    16    17   ar
    29    17    18   ar
    30    18    19   ar
    31    19    20   ar
    32    14    15   ar
    33    15    10   ar
    34     8     3    1
    35    27    22   ar
    36    20    16   ar
    37    33    29   ar
@<TRIPOS>MOLECULE
*****
 33 37 0 0 0
SMALL
GASTEIGER

@<TRIPOS>ATOM
      1 C          61.0570   86.7182   10.2080 C.2     1  UNL1        0.2506
      2 O          60.6683   86.8797   11.6477 O.2     1  UNL1       -0.2699
      3 N          62.0633   85.6777    9.8151 N.am    1  UNL1       -0.2723
      4 C          62.4520   85.5162    8.3753 C.3     1  UNL1        0.1257
      5 C          63.4584   84.4756    7.9823 C.3     1  UNL1        0.1637
      6 O          64.0761   83.5966    9.0291 O.3     1  UNL1       -0.3502
      7 C          63.6874   83.7581   10.4688 C.3     1  UNL1        0.1622
      8 C          62.6810   84.7986   10.8618 C.3     1  UNL1        0.1096
      9 C          58.5861   90.2345    6.0210 C.3     1  UNL1        0.0311
     10 C          59.2038   89.3554    7.0677 C.ar    1  UNL1       -0.0203
     11 C          58.9581   87.8759    7.0450 C.ar    1  UNL1       -0.0040
     12 C          59.5758   86.9968    8.0918 C.ar    1  UNL1        0.0058
     13 C          60.4393   87.5973    9.1612 C.ar    1  UNL1        0.0729
     14 C          60.6850   89.0768    9.1839 C.ar    1  UNL1        0.1069
     15 C          60.0673   89.9559    8.1372 C.ar    1  UNL1        0.0168
     16 N          61.5486   89.6774   10.2534 N.ar    1  UNL1       -0.1477
     17 N          62.9560   90.1661   10.0792 N.ar    1  UNL1       -0.1447
     18 C          63.4336   90.6854   11.4029 C.ar    1  UNL1        0.1446
     19 C          62.3213   90.5176   12.3953 C.ar    1  UNL1        0.1446
     20 N          61.1563   89.8946   11.6848 N.ar    1  UNL1       -0.1447
     21 C          62.2924   84.9601   12.3015 C.3     1  UNL1        0.0496
     22 C          63.2906   85.4775   13.2944 C.ar    1  UNL1       -0.0083
     23 C          63.3238   86.9384   13.6329 C.ar    1  UNL1        0.0175
     24 C          64.3220   87.4558   14.6258 C.ar    1  UNL1        0.1026
     25 C          65.2872   86.5122   15.2801 C.ar    1  UNL1        0.0218
     26 C          65.2540   85.0513   14.9416 C.ar    1  UNL1        0.0127
     27 C          64.2557   84.5340   13.9488 C.ar    1  UNL1        0.0538
     28 CL         64.2226   83.0730   13.6103 Cl      1  UNL1       -0.0826
     29 N          64.3552   88.9167   14.9642 N.ar    1  UNL1       -0.1478
     30 N          63.4783   89.6101   15.9645 N.ar    1  UNL1       -0.1447
     31 C          63.8521   91.0627   15.9804 C.ar    1  UNL1        0.1446
     32 C          64.9600   91.2671   14.9899 C.ar    1  UNL1        0.1446
     33 N          65.2709   89.9408   14.3619 N.ar    1  UNL1       -0.1447
@<TRIPOS>BOND
     1     9    10    1
     2    10    11   ar
     3    11    12   ar
     4    12    13   ar
     5    13     1    1
     6     1     2    2
     7     1     3   am
     8     3     4    1
     9     4     5    1
    10     5     6    1
    11     6     7    1
    12     7     8    1
    13     8    21    1
    14    21    22    1
    15    22    23   ar
    16    23    24   ar
    17    24    29    1
    18    29    30   ar
    19    30    31   ar
    20    31    32   ar
    21    32    33   ar
    22    24    25   ar
    23    25    26   ar
    24    26    27   ar
    25    27    28    1
    26    13    14   ar
    27    14    16    1
    28    16    17   ar
    29    17    18   ar
    30    18    19   ar
    31    19    20   ar
    32    14    15   ar
    33    15    10   ar
    34     8     3    1
    35    27    22   ar
    36    20    16   ar
    37    33    29   ar
@<TRIPOS>MOLECULE
*****
 33 37 0 0 0
SMALL
GASTEIGER

@<TRIPOS>ATOM
      1 C          62.6360   88.7804   11.6603 C.2     1  UNL1        0.2506
      2 O          62.4800   90.2719   11.6256 O.2     1  UNL1       -0.2699
      3 N          63.3434   88.1269   12.8102 N.am    1  UNL1       -0.2723
      4 C          63.4995   86.6354   12.8449 C.3     1  UNL1        0.1257
      5 C          64.2069   85.9819   13.9949 C.3     1  UNL1        0.1637
      6 O          64.7583   86.8198   15.1101 O.3     1  UNL1       -0.3502
      7 C          64.6023   88.3113   15.0755 C.3     1  UNL1        0.1622
      8 C          63.8949   88.9648   13.9255 C.3     1  UNL1        0.1096
      9 C          60.4303   85.4288    7.1992 C.3     1  UNL1        0.0311
     10 C          60.9817   86.2667    8.3145 C.ar    1  UNL1       -0.0203
     11 C          62.4315   86.1623    8.6848 C.ar    1  UNL1       -0.0040
     12 C          62.9829   87.0002    9.8001 C.ar    1  UNL1        0.0058
     13 C          62.0846   87.9425   10.5450 C.ar    1  UNL1        0.0729
     14 C          60.6348   88.0469   10.1747 C.ar    1  UNL1        0.1069
     15 C          60.0834   87.2090    9.0594 C.ar    1  UNL1        0.0168
     16 N          59.7364   88.9893   10.9196 N.ar    1  UNL1       -0.1477
     17 N          58.9157   88.6538   12.1296 N.ar    1  UNL1       -0.1447
     18 C          58.1730   89.8897   12.5432 C.ar    1  UNL1        0.1446
     19 C          58.5347   90.9889   11.5887 C.ar    1  UNL1        0.1446
     20 N          59.5009   90.4325   10.5854 N.ar    1  UNL1       -0.1447
     21 C          63.7388   90.4563   13.8908 C.3     1  UNL1        0.0496
     22 C          64.9527   91.3366   13.8504 C.ar    1  UNL1       -0.0083
     23 C          65.6206   91.6335   12.5406 C.ar    1  UNL1        0.0175
     24 C          66.8344   92.5139   12.5002 C.ar    1  UNL1        0.1026
     25 C          67.3803   93.0973   13.7696 C.ar    1  UNL1        0.0218
     26 C          66.7124   92.8004   15.0794 C.ar    1  UNL1        0.0127
     27 C          65.4986   91.9201   15.1198 C.ar    1  UNL1        0.0538
     28 CL         64.8306   91.6232   16.4298 Cl      1  UNL1       -0.0826
     29 N          67.5023   92.8107   11.1903 N.ar    1  UNL1       -0.1478
     30 N          67.2990   94.0404   10.3557 N.ar    1  UNL1       -0.1447
     31 C          68.1618   93.9198    9.1346 C.ar    1  UNL1        0.1446
     32 C          68.8983   92.6154    9.2145 C.ar    1  UNL1        0.1446
     33 N          68.4907   91.9300   10.4850 N.ar    1  UNL1       -0.1447
@<TRIPOS>BOND
     1     9    10    1
     2    10    11   ar
     3    11    12   ar
     4    12    13   ar
     5    13     1    1
     6     1     2    2
     7     1     3   am
     8     3     4    1
     9     4     5    1
    10     5     6    1
    11     6     7    1
    12     7     8    1
    13     8    21    1
    14    21    22    1
    15    22    23   ar
    16    23    24   ar
    17    24    29    1
    18    29    30   ar
    19    30    31   ar
    20    31    32   ar
    21    32    33   ar
    22    24    25   ar
    23    25    26   ar
    24    26    27   ar
    25    27    28    1
    26    13    14   ar
    27    14    16    1
    28    16    17   ar
    29    17    18   ar
    30    18    19   ar
    31    19    20   ar
    32    14    15   ar
    33    15    10   ar
    34     8     3    1
    35    27    22   ar
    36    20    16   ar
    37    33    29   ar
@<TRIPOS>MOLECULE
*****
 33 37 0 0 0
SMALL
GASTEIGER

@<TRIPOS>ATOM
      1 C          63.9980   85.2424   14.2437 C.2     1  UNL1        0.2506
      2 O          65.0164   85.9272   13.3813 O.2     1  UNL1       -0.2699
      3 N          63.3913   85.9681   15.4079 N.am    1  UNL1       -0.2723
      4 C          62.3728   85.2833   16.2704 C.3     1  UNL1        0.1257
      5 C          61.7662   86.0090   17.4346 C.3     1  UNL1        0.1637
      6 O          62.1780   87.4195   17.7363 O.3     1  UNL1       -0.3502
      7 C          63.1965   88.1042   16.8739 C.3     1  UNL1        0.1622
      8 C          63.8032   87.3785   15.7096 C.3     1  UNL1        0.1096
      9 C          62.3507   79.6006   13.0368 C.3     1  UNL1        0.0311
     10 C          62.7625   81.0111   13.3385 C.ar    1  UNL1       -0.0203
     11 C          63.5384   81.3153   14.5856 C.ar    1  UNL1       -0.0040
     12 C          63.9502   82.7258   14.8873 C.ar    1  UNL1        0.0058
     13 C          63.5861   83.8320   13.9420 C.ar    1  UNL1        0.0729
     14 C          62.8102   83.5277   12.6949 C.ar    1  UNL1        0.1069
     15 C          62.3984   82.1172   12.3931 C.ar    1  UNL1        0.0168
     16 N          62.4461   84.6339   11.7494 N.ar    1  UNL1       -0.1477
     17 N          62.9088   84.7676   10.3288 N.ar    1  UNL1       -0.1447
     18 C          62.3040   86.0169    9.7600 C.ar    1  UNL1        0.1446
     19 C          61.4676   86.6553   10.8291 C.ar    1  UNL1        0.1446
     20 N          61.5554   85.8005   12.0586 N.ar    1  UNL1       -0.1447
     21 C          64.8216   88.0633   14.8472 C.3     1  UNL1        0.0496
     22 C          64.4141   89.2134   13.9748 C.ar    1  UNL1       -0.0083
     23 C          63.2943   89.0483   12.9906 C.ar    1  UNL1        0.0175
     24 C          62.8868   90.1984   12.1181 C.ar    1  UNL1        0.1026
     25 C          63.5992   91.5137   12.2299 C.ar    1  UNL1        0.0218
     26 C          64.7190   91.6788   13.2140 C.ar    1  UNL1        0.0127
     27 C          65.1265   90.5287   14.0865 C.ar    1  UNL1        0.0538
     28 CL         66.2464   90.6939   15.0707 Cl      1  UNL1       -0.0826
     29 N          61.7670   90.0332   11.1339 N.ar    1  UNL1       -0.1478
     30 N          61.9161   89.7897    9.6613 N.ar    1  UNL1       -0.1447
     31 C          60.5427   89.6885    9.0667 C.ar    1  UNL1        0.1446
     32 C          59.5447   89.8694   10.1719 C.ar    1  UNL1        0.1446
     33 N          60.3014   90.0825   11.4495 N.ar    1  UNL1       -0.1447
@<TRIPOS>BOND
     1     9    10    1
     2    10    11   ar
     3    11    12   ar
     4    12    13   ar
     5    13     1    1
     6     1     2    2
     7     1     3   am
     8     3     4    1
     9     4     5    1
    10     5     6    1
    11     6     7    1
    12     7     8    1
    13     8    21    1
    14    21    22    1
    15    22    23   ar
    16    23    24   ar
    17    24    29    1
    18    29    30   ar
    19    30    31   ar
    20    31    32   ar
    21    32    33   ar
    22    24    25   ar
    23    25    26   ar
    24    26    27   ar
    25    27    28    1
    26    13    14   ar
    27    14    16    1
    28    16    17   ar
    29    17    18   ar
    30    18    19   ar
    31    19    20   ar
    32    14    15   ar
    33    15    10   ar
    34     8     3    1
    35    27    22   ar
    36    20    16   ar
    37    33    29   ar
@<TRIPOS>MOLECULE
*****
 33 37 0 0 0
SMALL
GASTEIGER

@<TRIPOS>ATOM
      1 C          62.7408   88.9788   11.6354 C.2     1  UNL1        0.2506
      2 O          62.9556   87.8272   12.5722 O.2     1  UNL1       -0.2699
      3 N          61.6903   88.8916   10.5683 N.am    1  UNL1       -0.2723
      4 C          61.4754   90.0433    9.6314 C.3     1  UNL1        0.1257
      5 C          60.4250   89.9561    8.5643 C.3     1  UNL1        0.1637
      6 O          59.5893   88.7172    8.4339 O.3     1  UNL1       -0.3502
      7 C          59.8041   87.5656    9.3707 C.3     1  UNL1        0.1622
      8 C          60.8546   87.6528   10.4379 C.3     1  UNL1        0.1096
      9 C          66.0834   93.9341   12.1570 C.3     1  UNL1        0.0311
     10 C          65.2477   92.6952   12.0266 C.ar    1  UNL1       -0.0203
     11 C          64.7104   92.2907   10.6859 C.ar    1  UNL1       -0.0040
     12 C          63.8748   91.0519   10.5555 C.ar    1  UNL1        0.0058
     13 C          63.5764   90.2176   11.7658 C.ar    1  UNL1        0.0729
     14 C          64.1137   90.6222   13.1065 C.ar    1  UNL1        0.1069
     15 C          64.9494   91.8610   13.2369 C.ar    1  UNL1        0.0168
     16 N          63.8154   89.7879   14.3170 N.ar    1  UNL1       -0.1477
     17 N          62.7726   90.0810   15.3546 N.ar    1  UNL1       -0.1447
     18 C          62.8201   88.9884   16.3812 C.ar    1  UNL1        0.1446
     19 C          63.8924   88.0200   15.9780 C.ar    1  UNL1        0.1446
     20 N          64.5074   88.5141   14.7023 N.ar    1  UNL1       -0.1447
     21 C          61.0695   86.5011   11.3746 C.3     1  UNL1        0.0496
     22 C          61.9620   85.3644   10.9734 C.ar    1  UNL1       -0.0083
     23 C          62.1070   84.1716   11.8713 C.ar    1  UNL1        0.0175
     24 C          62.9995   83.0348   11.4700 C.ar    1  UNL1        0.1026
     25 C          63.7472   83.0908   10.1708 C.ar    1  UNL1        0.0218
     26 C          63.6022   84.2835    9.2729 C.ar    1  UNL1        0.0127
     27 C          62.7097   85.4203    9.6742 C.ar    1  UNL1        0.0538
     28 CL         62.5647   86.6131    8.7762 Cl      1  UNL1       -0.0826
     29 N          63.1445   81.8420   12.3680 N.ar    1  UNL1       -0.1478
     30 N          63.9478   81.7835   13.6334 N.ar    1  UNL1       -0.1447
     31 C          63.8114   80.4037   14.2057 C.ar    1  UNL1        0.1446
     32 C          62.9236   79.6094   13.2939 C.ar    1  UNL1        0.1446
     33 N          62.5115   80.4984   12.1582 N.ar    1  UNL1       -0.1447
@<TRIPOS>BOND
     1     9    10    1
     2    10    11   ar
     3    11    12   ar
     4    12    13   ar
     5    13     1    1
     6     1     2    2
     7     1     3   am
     8     3     4    1
     9     4     5    1
    10     5     6    1
    11     6     7    1
    12     7     8    1
    13     8    21    1
    14    21    22    1
    15    22    23   ar
    16    23    24   ar
    17    24    29    1
    18    29    30   ar
    19    30    31   ar
    20    31    32   ar
    21    32    33   ar
    22    24    25   ar
    23    25    26   ar
    24    26    27   ar
    25    27    28    1
    26    13    14   ar
    27    14    16    1
    28    16    17   ar
    29    17    18   ar
    30    18    19   ar
    31    19    20   ar
    32    14    15   ar
    33    15    10   ar
    34     8     3    1
    35    27    22   ar
    36    20    16   ar
    37    33    29   ar
@<TRIPOS>MOLECULE
*****
 33 37 0 0 0
SMALL
GASTEIGER

@<TRIPOS>ATOM
      1 C          62.8202   88.2957   11.1555 C.2     1  UNL1        0.2506
      2 O          63.0725   89.7639   10.9811 O.2     1  UNL1       -0.2699
      3 N          63.2979   87.5944   12.3923 N.am    1  UNL1       -0.2723
      4 C          63.0457   86.1260   12.5668 C.3     1  UNL1        0.1257
      5 C          63.5234   85.4247   13.8037 C.3     1  UNL1        0.1637
      6 O          64.2534   86.1917   14.8662 O.3     1  UNL1       -0.3502
      7 C          64.5056   87.6600   14.6918 C.3     1  UNL1        0.1622
      8 C          64.0279   88.3614   13.4548 C.3     1  UNL1        0.1096
      9 C          59.9003   85.2277    6.9055 C.3     1  UNL1        0.0311
     10 C          60.6303   85.9947    7.9680 C.ar    1  UNL1       -0.0203
     11 C          62.0985   85.7717    8.1791 C.ar    1  UNL1       -0.0040
     12 C          62.8285   86.5387    9.2416 C.ar    1  UNL1        0.0058
     13 C          62.0902   87.5287   10.0930 C.ar    1  UNL1        0.0729
     14 C          60.6220   87.7516    9.8819 C.ar    1  UNL1        0.1069
     15 C          59.8921   86.9846    8.8195 C.ar    1  UNL1        0.0168
     16 N          59.8837   88.7416   10.7334 N.ar    1  UNL1       -0.1477
     17 N          59.7182   90.2039   10.4430 N.ar    1  UNL1       -0.1447
     18 C          58.9135   90.8091   11.5548 C.ar    1  UNL1        0.1446
     19 C          58.5817   89.7209   12.5323 C.ar    1  UNL1        0.1446
     20 N          59.1813   88.4431   12.0247 N.ar    1  UNL1       -0.1447
     21 C          64.2802   89.8296   13.2804 C.3     1  UNL1        0.0496
     22 C          64.7002   90.6632   14.4546 C.ar    1  UNL1       -0.0083
     23 C          66.0260   91.3647   14.4405 C.ar    1  UNL1        0.0175
     24 C          66.4460   92.1982   15.6147 C.ar    1  UNL1        0.1026
     25 C          65.5403   92.3302   16.8031 C.ar    1  UNL1        0.0218
     26 C          64.2146   91.6287   16.8172 C.ar    1  UNL1        0.0127
     27 C          63.7945   90.7952   15.6430 C.ar    1  UNL1        0.0538
     28 CL         62.4687   90.0936   15.6572 Cl      1  UNL1       -0.0826
     29 N          67.7719   92.8997   15.6005 N.ar    1  UNL1       -0.1478
     30 N          68.9966   92.4553   14.8572 N.ar    1  UNL1       -0.1447
     31 C          70.0874   93.4496   15.1244 C.ar    1  UNL1        0.1446
     32 C          69.5367   94.5087   16.0329 C.ar    1  UNL1        0.1446
     33 N          68.1057   94.1688   16.3272 N.ar    1  UNL1       -0.1447
@<TRIPOS>BOND
     1     9    10    1
     2    10    11   ar
     3    11    12   ar
     4    12    13   ar
     5    13     1    1
     6     1     2    2
     7     1     3   am
     8     3     4    1
     9     4     5    1
    10     5     6    1
    11     6     7    1
    12     7     8    1
    13     8    21    1
    14    21    22    1
    15    22    23   ar
    16    23    24   ar
    17    24    29    1
    18    29    30   ar
    19    30    31   ar
    20    31    32   ar
    21    32    33   ar
    22    24    25   ar
    23    25    26   ar
    24    26    27   ar
    25    27    28    1
    26    13    14   ar
    27    14    16    1
    28    16    17   ar
    29    17    18   ar
    30    18    19   ar
    31    19    20   ar
    32    14    15   ar
    33    15    10   ar
    34     8     3    1
    35    27    22   ar
    36    20    16   ar
    37    33    29   ar
