@<TRIPOS>MOLECULE
*****
 31 35 0 0 0
SMALL
GASTEIGER

@<TRIPOS>ATOM
      1 O          61.3985   89.5348   10.1423 O.2     1  UNL1       -0.2744
      2 C          62.2825   89.0210   11.2397 C.2     1  UNL1        0.2322
      3 C          63.1495   90.0451   11.9104 C.3     1  UNL1        0.1309
      4 C          64.1308   89.8523   13.0283 C.2     1  UNL1        0.0682
      5 N          64.4875   88.5876   13.7518 N.2     1  UNL1       -0.2479
      6 C          63.9511   87.2035   13.5360 C.ar    1  UNL1        0.0943
      7 C          64.5781   86.2196   14.4788 C.ar    1  UNL1        0.0203
      8 C          64.1794   84.7745   14.4290 C.ar    1  UNL1        0.0017
      9 C          63.1537   84.3132   13.4364 C.ar    1  UNL1        0.0035
     10 C          62.5267   85.2970   12.4936 C.ar    1  UNL1        0.0163
     11 C          62.9254   86.7422   12.5435 C.ar    1  UNL1        0.0682
     12 N          62.1828   87.5511   11.5215 N.am    1  UNL1       -0.2824
     13 H          61.5458   87.0511   10.9617 H       1  UNL1        0.1549
     14 C          62.7550   82.8679   13.3866 C.ar    1  UNL1        0.0275
     15 C          61.8052   82.3163   14.4081 C.ar    1  UNL1        0.0022
     16 C          61.4065   80.8711   14.3583 C.ar    1  UNL1        0.0001
     17 C          61.9577   79.9775   13.2870 C.ar    1  UNL1        0.0023
     18 C          62.9076   80.5292   12.2655 C.ar    1  UNL1        0.0296
     19 C          63.3062   81.9744   12.3153 C.ar    1  UNL1        0.1401
     20 F          64.2561   82.5260   11.2938 F       1  UNL1       -0.2042
     21 C          64.8505   91.0873   13.4829 C.ar    1  UNL1        0.0155
     22 C          65.2308   91.2456   14.9253 C.ar    1  UNL1        0.0013
     23 C          65.9505   92.4807   15.3798 C.ar    1  UNL1        0.0016
     24 C          66.2899   93.5574   14.3921 C.ar    1  UNL1        0.0192
     25 C          65.9096   93.3990   12.9497 C.ar    1  UNL1        0.0845
     26 C          65.1899   92.1639   12.4952 C.ar    1  UNL1        0.0204
     27 N          66.2490   94.4756   11.9620 N.ar    1  UNL1       -0.2089
     28 C          66.7600   94.2637   10.5678 C.ar    1  UNL1        0.1245
     29 C          66.9638   95.6104    9.9392 C.ar    1  UNL1        0.1445
     30 N          66.5788   96.6545   10.9450 N.ar    1  UNL1       -0.1268
     31 N          66.1371   95.9532   12.1951 N.ar    1  UNL1       -0.0595
@<TRIPOS>BOND
     1     1     2    2
     2     2     3    1
     3     3     4    1
     4     4    21    1
     5    21    22   ar
     6    22    23   ar
     7    23    24   ar
     8    24    25   ar
     9    25    27    1
    10    27    28   ar
    11    28    29   ar
    12    29    30   ar
    13    30    31   ar
    14    25    26   ar
    15     4     5    2
    16     5     6    1
    17     6     7   ar
    18     7     8   ar
    19     8     9   ar
    20     9    14    1
    21    14    15   ar
    22    15    16   ar
    23    16    17   ar
    24    17    18   ar
    25    18    19   ar
    26    19    20    1
    27     9    10   ar
    28    10    11   ar
    29    11    12    1
    30    12     2   am
    31    26    21   ar
    32    11     6   ar
    33    31    27   ar
    34    19    14   ar
    35    12    13    1
@<TRIPOS>MOLECULE
*****
 31 35 0 0 0
SMALL
GASTEIGER

@<TRIPOS>ATOM
      1 O          61.8663   89.4251   10.4202 O.2     1  UNL1       -0.2744
      2 C          62.5378   88.6859   11.5393 C.2     1  UNL1        0.2322
      3 C          63.1299   89.5403   12.6208 C.3     1  UNL1        0.1309
      4 C          63.8589   89.1099   13.8590 C.2     1  UNL1        0.0682
      5 N          64.1758   87.7187   14.3217 N.2     1  UNL1       -0.2479
      6 C          63.8422   86.4143   13.6604 C.ar    1  UNL1        0.0943
      7 C          64.3454   85.2497   14.4606 C.ar    1  UNL1        0.0203
      8 C          64.1155   83.8498   13.9735 C.ar    1  UNL1        0.0017
      9 C          63.3824   83.6145   12.6862 C.ar    1  UNL1        0.0035
     10 C          62.8791   84.7791   11.8860 C.ar    1  UNL1        0.0163
     11 C          63.1090   86.1790   12.3731 C.ar    1  UNL1        0.0682
     12 N          62.5286   87.1900   11.4292 N.am    1  UNL1       -0.2824
     13 H          62.0825   86.8232   10.6318 H       1  UNL1        0.1549
     14 C          63.1525   82.2145   12.1990 C.ar    1  UNL1        0.0275
     15 C          62.6499   81.1643   13.1449 C.ar    1  UNL1        0.0022
     16 C          62.4201   79.7643   12.6577 C.ar    1  UNL1        0.0001
     17 C          62.6927   79.4145   11.2248 C.ar    1  UNL1        0.0023
     18 C          63.1953   80.4648   10.2790 C.ar    1  UNL1        0.0296
     19 C          63.4252   81.8647   10.7661 C.ar    1  UNL1        0.1401
     20 F          63.9277   82.9149    9.8203 F       1  UNL1       -0.2042
     21 C          64.3337   90.2170   14.7528 C.ar    1  UNL1        0.0155
     22 C          63.4349   90.7495   15.8293 C.ar    1  UNL1        0.0013
     23 C          63.9098   91.8567   16.7230 C.ar    1  UNL1        0.0016
     24 C          65.2832   92.4313   16.5403 C.ar    1  UNL1        0.0192
     25 C          66.1819   91.8988   15.4638 C.ar    1  UNL1        0.0845
     26 C          65.7071   90.7917   14.5701 C.ar    1  UNL1        0.0204
     27 N          67.5554   92.4735   15.2811 N.ar    1  UNL1       -0.2089
     28 C          68.1814   93.5459   16.1224 C.ar    1  UNL1        0.1245
     29 C          69.5569   93.8118   15.5862 C.ar    1  UNL1        0.1445
     30 N          69.7809   92.9037   14.4135 N.ar    1  UNL1       -0.1268
     31 N          68.5439   92.0766   14.2250 N.ar    1  UNL1       -0.0595
@<TRIPOS>BOND
     1     1     2    2
     2     2     3    1
     3     3     4    1
     4     4    21    1
     5    21    22   ar
     6    22    23   ar
     7    23    24   ar
     8    24    25   ar
     9    25    27    1
    10    27    28   ar
    11    28    29   ar
    12    29    30   ar
    13    30    31   ar
    14    25    26   ar
    15     4     5    2
    16     5     6    1
    17     6     7   ar
    18     7     8   ar
    19     8     9   ar
    20     9    14    1
    21    14    15   ar
    22    15    16   ar
    23    16    17   ar
    24    17    18   ar
    25    18    19   ar
    26    19    20    1
    27     9    10   ar
    28    10    11   ar
    29    11    12    1
    30    12     2   am
    31    26    21   ar
    32    11     6   ar
    33    31    27   ar
    34    19    14   ar
    35    12    13    1
@<TRIPOS>MOLECULE
*****
 31 35 0 0 0
SMALL
GASTEIGER

@<TRIPOS>ATOM
      1 O          62.3957   85.3277   12.8872 O.2     1  UNL1       -0.2744
      2 C          62.4646   86.6854   12.2535 C.2     1  UNL1        0.2322
      3 C          61.6188   86.8761   11.0294 C.3     1  UNL1        0.1309
      4 C          61.4697   88.1014   10.1771 C.2     1  UNL1        0.0682
      5 N          62.1296   89.4387   10.3385 N.2     1  UNL1       -0.2479
      6 C          63.1016   89.8811   11.3919 C.ar    1  UNL1        0.0943
      7 C          63.5208   91.3066   11.1868 C.ar    1  UNL1        0.0203
      8 C          64.4922   91.9464   12.1339 C.ar    1  UNL1        0.0017
      9 C          65.0443   91.1606   13.2862 C.ar    1  UNL1        0.0035
     10 C          64.6251   89.7351   13.4913 C.ar    1  UNL1        0.0163
     11 C          63.6537   89.0953   12.5441 C.ar    1  UNL1        0.0682
     12 N          63.3702   87.6731   12.9275 N.am    1  UNL1       -0.2824
     13 H          63.8407   87.3445   13.7274 H       1  UNL1        0.1549
     14 C          66.0157   91.8004   14.2334 C.ar    1  UNL1        0.0275
     15 C          65.5902   92.1332   15.6327 C.ar    1  UNL1        0.0022
     16 C          66.5616   92.7730   16.5799 C.ar    1  UNL1        0.0001
     17 C          67.9585   93.0799   16.1277 C.ar    1  UNL1        0.0023
     18 C          68.3840   92.7471   14.7283 C.ar    1  UNL1        0.0296
     19 C          67.4126   92.1073   13.7812 C.ar    1  UNL1        0.1401
     20 F          67.8381   91.7744   12.3818 F       1  UNL1       -0.2042
     21 C          60.5375   87.9723    9.0092 C.ar    1  UNL1        0.0155
     22 C          59.8643   86.6616    8.7281 C.ar    1  UNL1        0.0013
     23 C          58.9320   86.5325    7.5601 C.ar    1  UNL1        0.0016
     24 C          58.6729   87.7141    6.6731 C.ar    1  UNL1        0.0192
     25 C          59.3461   89.0248    6.9541 C.ar    1  UNL1        0.0845
     26 C          60.2784   89.1539    8.1222 C.ar    1  UNL1        0.0204
     27 N          59.0870   90.2064    6.0671 N.ar    1  UNL1       -0.2089
     28 C          60.1195   90.9707    5.2928 C.ar    1  UNL1        0.1245
     29 C          59.4205   92.0678    4.5458 C.ar    1  UNL1        0.1445
     30 N          57.9561   91.9815    4.8586 N.ar    1  UNL1       -0.1268
     31 N          57.7500   90.8311    5.7988 N.ar    1  UNL1       -0.0595
@<TRIPOS>BOND
     1     1     2    2
     2     2     3    1
     3     3     4    1
     4     4    21    1
     5    21    22   ar
     6    22    23   ar
     7    23    24   ar
     8    24    25   ar
     9    25    27    1
    10    27    28   ar
    11    28    29   ar
    12    29    30   ar
    13    30    31   ar
    14    25    26   ar
    15     4     5    2
    16     5     6    1
    17     6     7   ar
    18     7     8   ar
    19     8     9   ar
    20     9    14    1
    21    14    15   ar
    22    15    16   ar
    23    16    17   ar
    24    17    18   ar
    25    18    19   ar
    26    19    20    1
    27     9    10   ar
    28    10    11   ar
    29    11    12    1
    30    12     2   am
    31    26    21   ar
    32    11     6   ar
    33    31    27   ar
    34    19    14   ar
    35    12    13    1
@<TRIPOS>MOLECULE
*****
 31 35 0 0 0
SMALL
GASTEIGER

@<TRIPOS>ATOM
      1 O          62.9457   87.8079   18.1948 O.2     1  UNL1       -0.2744
      2 C          63.1666   87.4990   16.7438 C.2     1  UNL1        0.2322
      3 C          63.6725   88.6358   15.9060 C.3     1  UNL1        0.1309
      4 C          63.9891   88.6485   14.4398 C.2     1  UNL1        0.0682
      5 N          63.8781   87.5275   13.4494 N.2     1  UNL1       -0.2479
      6 C          63.4230   86.1169   13.6803 C.ar    1  UNL1        0.0943
      7 C          63.4624   85.3140   12.4139 C.ar    1  UNL1        0.0203
      8 C          63.0453   83.8733   12.4261 C.ar    1  UNL1        0.0017
      9 C          62.5889   83.2354   13.7047 C.ar    1  UNL1        0.0035
     10 C          62.5495   84.0383   14.9711 C.ar    1  UNL1        0.0163
     11 C          62.9665   85.4790   14.9589 C.ar    1  UNL1        0.0682
     12 N          62.8524   86.0942   16.3222 N.am    1  UNL1       -0.2824
     13 H          62.5285   85.4968   17.0346 H       1  UNL1        0.1549
     14 C          62.1718   81.7945   13.7168 C.ar    1  UNL1        0.0275
     15 C          60.7777   81.4207   14.1251 C.ar    1  UNL1        0.0022
     16 C          60.3606   79.9799   14.1373 C.ar    1  UNL1        0.0001
     17 C          61.3376   78.9129   13.7411 C.ar    1  UNL1        0.0023
     18 C          62.7318   79.2868   13.3327 C.ar    1  UNL1        0.0296
     19 C          63.1488   80.7276   13.3206 C.ar    1  UNL1        0.1401
     20 F          64.5429   81.1015   12.9122 F       1  UNL1       -0.2042
     21 C          64.4820   89.9548   13.8917 C.ar    1  UNL1        0.0155
     22 C          63.7470   90.6211   12.7665 C.ar    1  UNL1        0.0013
     23 C          64.2399   91.9275   12.2184 C.ar    1  UNL1        0.0016
     24 C          65.4676   92.5676   12.7954 C.ar    1  UNL1        0.0192
     25 C          66.2026   91.9013   13.9206 C.ar    1  UNL1        0.0845
     26 C          65.7097   90.5949   14.4687 C.ar    1  UNL1        0.0204
     27 N          67.4303   92.5414   14.4976 N.ar    1  UNL1       -0.2089
     28 C          67.4745   93.4422   15.6961 C.ar    1  UNL1        0.1245
     29 C          68.9010   93.8506   15.9166 C.ar    1  UNL1        0.1445
     30 N          69.7383   93.2021   14.8544 N.ar    1  UNL1       -0.1268
     31 N          68.8294   92.3930   13.9774 N.ar    1  UNL1       -0.0595
@<TRIPOS>BOND
     1     1     2    2
     2     2     3    1
     3     3     4    1
     4     4    21    1
     5    21    22   ar
     6    22    23   ar
     7    23    24   ar
     8    24    25   ar
     9    25    27    1
    10    27    28   ar
    11    28    29   ar
    12    29    30   ar
    13    30    31   ar
    14    25    26   ar
    15     4     5    2
    16     5     6    1
    17     6     7   ar
    18     7     8   ar
    19     8     9   ar
    20     9    14    1
    21    14    15   ar
    22    15    16   ar
    23    16    17   ar
    24    17    18   ar
    25    18    19   ar
    26    19    20    1
    27     9    10   ar
    28    10    11   ar
    29    11    12    1
    30    12     2   am
    31    26    21   ar
    32    11     6   ar
    33    31    27   ar
    34    19    14   ar
    35    12    13    1
