@<TRIPOS>MOLECULE
*****
 34 38 0 0 0
SMALL
GASTEIGER

@<TRIPOS>ATOM
      1 C          62.7218   89.9699   12.5826 C.ar    1  UNL1        0.2396
      2 N          62.7364   88.4740   12.4740 N.ar    1  UNL1       -0.1932
      3 C          62.0332   88.0945   11.2045 C.ar    1  UNL1        0.1667
      4 C          61.7438   86.7633   10.5767 C.ar    1  UNL1        0.0360
      5 C          61.0054   86.6935    9.2729 C.ar    1  UNL1        0.0046
      6 C          60.5563   87.9550    8.5970 C.ar    1  UNL1        0.0208
      7 C          60.8456   89.2862    9.2248 C.ar    1  UNL1        0.1022
      8 N          61.5840   89.3560   10.5285 N.ar    1  UNL1       -0.2081
      9 N          62.0096   90.5151   11.3803 N.ar    1  UNL1       -0.1281
     10 C          62.1930   85.5018   11.2527 C.ar    1  UNL1        0.0030
     11 C          62.7882   84.3881   10.4432 C.ar    1  UNL1        0.0014
     12 C          63.2374   83.1266   11.1192 C.ar    1  UNL1        0.0183
     13 C          63.0913   82.9789   12.6048 C.ar    1  UNL1        0.1057
     14 C          62.4961   84.0927   13.4143 C.ar    1  UNL1        0.0183
     15 C          62.0469   85.3541   12.7382 C.ar    1  UNL1        0.0014
     16 S          63.5404   81.7175   13.2808 S.O2    1  UNL1        0.0104
     17 C          63.9896   80.4560   13.9568 C.3     1  UNL1        0.1816
     18 O          63.9283   82.5068   14.4959 O.2     1  UNL1       -0.1686
     19 O          63.1525   80.9282   12.0657 O.2     1  UNL1       -0.1686
     20 N          63.3152   90.7788   13.6978 N.pl3   1  UNL1       -0.2813
     21 H          62.8036   90.9250   14.5262 H       1  UNL1        0.1551
     22 C          66.3439   92.9322   12.3051 C.ar    1  UNL1        0.0492
     23 C          67.4338   92.5375   13.2572 C.ar    1  UNL1        0.0146
     24 C          67.1508   91.5566   14.3561 C.ar    1  UNL1        0.0025
     25 C          65.7778   90.9704   14.5030 C.ar    1  UNL1        0.0148
     26 C          64.6880   91.3651   13.5509 C.ar    1  UNL1        0.0517
     27 C          64.9710   92.3459   12.4520 C.ar    1  UNL1        0.0292
     28 C          67.4760   96.8557    7.9091 C.3     1  UNL1        0.0897
     29 N          67.1929   95.8748    9.0081 N.3     1  UNL1       -0.2686
     30 C          66.5499   96.3396   10.2810 C.3     1  UNL1        0.0938
     31 C          66.2668   95.3587   11.3800 C.3     1  UNL1        0.1081
     32 N          66.6269   93.9131   11.2061 N.pl3   1  UNL1       -0.3046
     33 C          67.2700   93.4482    9.9331 C.3     1  UNL1        0.1081
     34 C          67.5530   94.4291    8.8341 C.3     1  UNL1        0.0938
@<TRIPOS>BOND
     1    28    29    1
     2    29    30    1
     3    30    31    1
     4    31    32    1
     5    32    22    1
     6    22    23   ar
     7    23    24   ar
     8    24    25   ar
     9    25    26   ar
    10    26    20    1
    11    20     1    1
    12     1     2   ar
    13     2     3   ar
    14     3     4   ar
    15     4    10    1
    16    10    11   ar
    17    11    12   ar
    18    12    13   ar
    19    13    16    1
    20    16    17    1
    21    16    18    2
    22    16    19    2
    23    13    14   ar
    24    14    15   ar
    25     4     5   ar
    26     5     6   ar
    27     6     7   ar
    28     7     8   ar
    29     8     9   ar
    30    26    27   ar
    31    32    33    1
    32    33    34    1
    33    34    29    1
    34    27    22   ar
    35     9     1   ar
    36     8     3   ar
    37    15    10   ar
    38    20    21    1
@<TRIPOS>MOLECULE
*****
 34 38 0 0 0
SMALL
GASTEIGER

@<TRIPOS>ATOM
      1 C          64.2271   85.1272   14.7449 C.ar    1  UNL1        0.2396
      2 N          63.5136   85.4826   13.4743 N.ar    1  UNL1       -0.1932
      3 C          63.5042   84.2689   12.5928 C.ar    1  UNL1        0.1667
      4 C          62.9427   84.0276   11.2230 C.ar    1  UNL1        0.0360
      5 C          63.0888   82.6808   10.5790 C.ar    1  UNL1        0.0046
      6 C          63.7965   81.5753   11.3049 C.ar    1  UNL1        0.0208
      7 C          64.3581   81.8166   12.6747 C.ar    1  UNL1        0.1022
      8 N          64.2119   83.1634   13.3187 N.ar    1  UNL1       -0.2081
      9 N          64.6587   83.6938   14.6487 N.ar    1  UNL1       -0.1281
     10 C          62.2349   85.1332   10.4971 C.ar    1  UNL1        0.0030
     11 C          62.4035   85.2853    9.0144 C.ar    1  UNL1        0.0014
     12 C          61.6957   86.3909    8.2886 C.ar    1  UNL1        0.0183
     13 C          60.8194   87.3444    9.0455 C.ar    1  UNL1        0.1057
     14 C          60.6508   87.1922   10.5282 C.ar    1  UNL1        0.0183
     15 C          61.3586   86.0867   11.2540 C.ar    1  UNL1        0.0014
     16 S          60.1117   88.4499    8.3197 S.O2    1  UNL1        0.0104
     17 C          59.4039   89.5555    7.5939 C.3     1  UNL1        0.1816
     18 O          60.8291   89.4624    9.1624 O.2     1  UNL1       -0.1686
     19 O          59.3942   87.4374    7.4770 O.2     1  UNL1       -0.1686
     20 N          64.4670   86.0441   15.9076 N.pl3   1  UNL1       -0.2813
     21 H          64.9172   85.7070   16.7156 H       1  UNL1        0.1551
     22 C          64.0749   89.7948   14.6715 C.ar    1  UNL1        0.0492
     23 C          63.1288   90.3355   15.7023 C.ar    1  UNL1        0.0146
     24 C          62.6287   89.4458   16.8015 C.ar    1  UNL1        0.0025
     25 C          63.0749   88.0152   16.8699 C.ar    1  UNL1        0.0148
     26 C          64.0209   87.4745   15.8391 C.ar    1  UNL1        0.0517
     27 C          64.5210   88.3643   14.7399 C.ar    1  UNL1        0.0292
     28 C          66.0750   93.3539   10.2746 C.3     1  UNL1        0.0897
     29 N          65.5750   92.4641   11.3738 N.3     1  UNL1       -0.2686
     30 C          64.3073   91.6839   11.1890 C.3     1  UNL1        0.0938
     31 C          63.8073   90.7941   12.2883 C.3     1  UNL1        0.1081
     32 N          64.5749   90.6846   13.5723 N.pl3   1  UNL1       -0.3046
     33 C          65.8427   91.4648   13.7571 C.3     1  UNL1        0.1081
     34 C          66.3427   92.3546   12.6579 C.3     1  UNL1        0.0938
@<TRIPOS>BOND
     1    28    29    1
     2    29    30    1
     3    30    31    1
     4    31    32    1
     5    32    22    1
     6    22    23   ar
     7    23    24   ar
     8    24    25   ar
     9    25    26   ar
    10    26    20    1
    11    20     1    1
    12     1     2   ar
    13     2     3   ar
    14     3     4   ar
    15     4    10    1
    16    10    11   ar
    17    11    12   ar
    18    12    13   ar
    19    13    16    1
    20    16    17    1
    21    16    18    2
    22    16    19    2
    23    13    14   ar
    24    14    15   ar
    25     4     5   ar
    26     5     6   ar
    27     6     7   ar
    28     7     8   ar
    29     8     9   ar
    30    26    27   ar
    31    32    33    1
    32    33    34    1
    33    34    29    1
    34    27    22   ar
    35     9     1   ar
    36     8     3   ar
    37    15    10   ar
    38    20    21    1
@<TRIPOS>MOLECULE
*****
 34 38 0 0 0
SMALL
GASTEIGER

@<TRIPOS>ATOM
      1 C          62.5148   85.4594    8.9102 C.ar    1  UNL1        0.2396
      2 N          62.7914   86.7678    9.5896 N.ar    1  UNL1       -0.1932
      3 C          61.7090   87.7304    9.1998 C.ar    1  UNL1        0.1667
      4 C          61.4623   89.1644    9.5641 C.ar    1  UNL1        0.0360
      5 C          60.2700   89.8850    9.0080 C.ar    1  UNL1        0.0046
      6 C          59.3245   89.1716    8.0877 C.ar    1  UNL1        0.0208
      7 C          59.5713   87.7376    7.7235 C.ar    1  UNL1        0.1022
      8 N          60.7635   87.0170    8.2795 N.ar    1  UNL1       -0.2081
      9 N          61.2615   85.6134    8.1005 N.ar    1  UNL1       -0.1281
     10 C          62.4079   89.8779   10.4844 C.ar    1  UNL1        0.0030
     11 C          62.6080   89.3818   11.8858 C.ar    1  UNL1        0.0014
     12 C          63.5535   90.0953   12.8061 C.ar    1  UNL1        0.0183
     13 C          64.2990   91.3047   12.3250 C.ar    1  UNL1        0.1057
     14 C          64.0988   91.8008   10.9236 C.ar    1  UNL1        0.0183
     15 C          63.1533   91.0874   10.0033 C.ar    1  UNL1        0.0014
     16 S          65.2445   92.0182   13.2453 S.O2    1  UNL1        0.0104
     17 C          66.1900   92.7316   14.1656 C.3     1  UNL1        0.1816
     18 O          66.1004   92.3960   12.0729 O.2     1  UNL1       -0.1686
     19 O          64.3886   91.6403   14.4177 O.2     1  UNL1       -0.1686
     20 N          63.3456   84.2154    9.0210 N.pl3   1  UNL1       -0.2813
     21 H          63.7428   83.8152    8.2139 H       1  UNL1        0.1551
     22 C          63.5987   83.7486   12.9539 C.ar    1  UNL1        0.0492
     23 C          64.0225   82.3124   13.0422 C.ar    1  UNL1        0.0146
     24 C          64.2207   81.5105   11.7901 C.ar    1  UNL1        0.0025
     25 C          63.9951   82.1449   10.4496 C.ar    1  UNL1        0.0148
     26 C          63.5713   83.5811   10.3613 C.ar    1  UNL1        0.0517
     27 C          63.3731   84.3829   11.6135 C.ar    1  UNL1        0.0292
     28 C          62.8059   86.9559   17.9623 C.3     1  UNL1        0.0897
     29 N          63.0041   86.1540   16.7102 N.3     1  UNL1       -0.2686
     30 C          64.0759   86.5399   15.7343 C.3     1  UNL1        0.0938
     31 C          64.2740   85.7381   14.4822 C.3     1  UNL1        0.1081
     32 N          63.4005   84.5504   14.2060 N.pl3   1  UNL1       -0.3046
     33 C          62.3287   84.1645   15.1819 C.3     1  UNL1        0.1081
     34 C          62.1305   84.9663   16.4340 C.3     1  UNL1        0.0938
@<TRIPOS>BOND
     1    28    29    1
     2    29    30    1
     3    30    31    1
     4    31    32    1
     5    32    22    1
     6    22    23   ar
     7    23    24   ar
     8    24    25   ar
     9    25    26   ar
    10    26    20    1
    11    20     1    1
    12     1     2   ar
    13     2     3   ar
    14     3     4   ar
    15     4    10    1
    16    10    11   ar
    17    11    12   ar
    18    12    13   ar
    19    13    16    1
    20    16    17    1
    21    16    18    2
    22    16    19    2
    23    13    14   ar
    24    14    15   ar
    25     4     5   ar
    26     5     6   ar
    27     6     7   ar
    28     7     8   ar
    29     8     9   ar
    30    26    27   ar
    31    32    33    1
    32    33    34    1
    33    34    29    1
    34    27    22   ar
    35     9     1   ar
    36     8     3   ar
    37    15    10   ar
    38    20    21    1
@<TRIPOS>MOLECULE
*****
 34 38 0 0 0
SMALL
GASTEIGER

@<TRIPOS>ATOM
      1 C          63.8449   90.2693   15.1260 C.ar    1  UNL1        0.2396
      2 N          63.2488   89.9388   13.7898 N.ar    1  UNL1       -0.1932
      3 C          63.8576   90.8561   12.7710 C.ar    1  UNL1        0.1667
      4 C          63.6522   90.9901   11.2911 C.ar    1  UNL1        0.0360
      5 C          64.4190   92.0215   10.5178 C.ar    1  UNL1        0.0046
      6 C          65.3914   92.9189   11.2243 C.ar    1  UNL1        0.0208
      7 C          65.5968   92.7849   12.7041 C.ar    1  UNL1        0.1022
      8 N          64.8299   91.7535   13.4774 N.ar    1  UNL1       -0.2081
      9 N          64.8221   91.3909   14.9329 N.ar    1  UNL1       -0.1281
     10 C          62.6798   90.0926   10.5847 C.ar    1  UNL1        0.0030
     11 C          62.9830   88.6317   10.4307 C.ar    1  UNL1        0.0014
     12 C          62.0106   87.7342    9.7242 C.ar    1  UNL1        0.0183
     13 C          60.7350   88.2977    9.1717 C.ar    1  UNL1        0.1057
     14 C          60.4318   89.7587    9.3257 C.ar    1  UNL1        0.0183
     15 C          61.4041   90.6561   10.0322 C.ar    1  UNL1        0.0014
     16 S          59.7626   87.4003    8.4652 S.O2    1  UNL1        0.0104
     17 C          58.7902   86.5029    7.7588 C.3     1  UNL1        0.1816
     18 O          59.1705   88.5898    7.7693 O.2     1  UNL1       -0.1686
     19 O          60.3547   86.2108    9.1612 O.2     1  UNL1       -0.1686
     20 N          63.5208   89.5965   16.4269 N.pl3   1  UNL1       -0.2813
     21 H          63.4665   90.1262   17.2549 H       1  UNL1        0.1551
     22 C          63.2653   85.8069   15.2766 C.ar    1  UNL1        0.0492
     23 C          62.7966   85.1567   16.5446 C.ar    1  UNL1        0.0146
     24 C          62.5694   85.9865   17.7733 C.ar    1  UNL1        0.0025
     25 C          62.8108   87.4665   17.7340 C.ar    1  UNL1        0.0148
     26 C          63.2794   88.1166   16.4661 C.ar    1  UNL1        0.0517
     27 C          63.5066   87.2868   15.2374 C.ar    1  UNL1        0.0292
     28 C          64.1743   82.4876   10.3617 C.3     1  UNL1        0.0897
     29 N          63.9470   83.3174   11.5904 N.3     1  UNL1       -0.2686
     30 C          63.0811   84.5401   11.5201 C.3     1  UNL1        0.0938
     31 C          62.8538   85.3700   12.7488 C.3     1  UNL1        0.1081
     32 N          63.4925   84.9770   14.0479 N.pl3   1  UNL1       -0.3046
     33 C          64.3585   83.7542   14.1183 C.3     1  UNL1        0.1081
     34 C          64.5858   82.9244   12.8896 C.3     1  UNL1        0.0938
@<TRIPOS>BOND
     1    28    29    1
     2    29    30    1
     3    30    31    1
     4    31    32    1
     5    32    22    1
     6    22    23   ar
     7    23    24   ar
     8    24    25   ar
     9    25    26   ar
    10    26    20    1
    11    20     1    1
    12     1     2   ar
    13     2     3   ar
    14     3     4   ar
    15     4    10    1
    16    10    11   ar
    17    11    12   ar
    18    12    13   ar
    19    13    16    1
    20    16    17    1
    21    16    18    2
    22    16    19    2
    23    13    14   ar
    24    14    15   ar
    25     4     5   ar
    26     5     6   ar
    27     6     7   ar
    28     7     8   ar
    29     8     9   ar
    30    26    27   ar
    31    32    33    1
    32    33    34    1
    33    34    29    1
    34    27    22   ar
    35     9     1   ar
    36     8     3   ar
    37    15    10   ar
    38    20    21    1
@<TRIPOS>MOLECULE
*****
 34 38 0 0 0
SMALL
GASTEIGER

@<TRIPOS>ATOM
      1 C          62.3261   90.4476    9.8375 C.ar    1  UNL1        0.2396
      2 N          62.4738   88.9921   10.1683 N.ar    1  UNL1       -0.1932
      3 C          61.4148   88.2371    9.4208 C.ar    1  UNL1        0.1667
      4 C          61.0774   86.7768    9.3596 C.ar    1  UNL1        0.0360
      5 C          59.9378   86.3055    8.5057 C.ar    1  UNL1        0.0046
      6 C          59.1357   87.2945    7.7129 C.ar    1  UNL1        0.0208
      7 C          59.4732   88.7548    7.7741 C.ar    1  UNL1        0.1022
      8 N          60.6127   89.2261    8.6280 N.ar    1  UNL1       -0.2081
      9 N          61.1759   90.5923    8.8856 N.ar    1  UNL1       -0.1281
     10 C          61.8795   85.7878   10.1524 C.ar    1  UNL1        0.0030
     11 C          61.7118   85.7073   11.6408 C.ar    1  UNL1        0.0014
     12 C          62.5139   84.7183   12.4336 C.ar    1  UNL1        0.0183
     13 C          63.4839   83.8099   11.7379 C.ar    1  UNL1        0.1057
     14 C          63.6516   83.8904   10.2495 C.ar    1  UNL1        0.0183
     15 C          62.8495   84.8794    9.4567 C.ar    1  UNL1        0.0014
     16 S          64.2860   82.8209   12.5306 S.O2    1  UNL1        0.0104
     17 C          65.0882   81.8319   13.3234 C.3     1  UNL1        0.1816
     18 O          64.8123   82.2273   11.2576 O.2     1  UNL1       -0.1686
     19 O          63.7598   83.4145   13.8037 O.2     1  UNL1       -0.1686
     20 N          63.1789   91.5629   10.3658 N.pl3   1  UNL1       -0.2813
     21 H          63.2085   92.4261    9.8934 H       1  UNL1        0.1551
     22 C          64.3886   90.1174   13.8582 C.ar    1  UNL1        0.0492
     23 C          65.6019   90.9627   14.1100 C.ar    1  UNL1        0.0146
     24 C          66.0076   92.0081   13.1136 C.ar    1  UNL1        0.0025
     25 C          65.1998   92.2081   11.8656 C.ar    1  UNL1        0.0148
     26 C          63.9866   91.3628   11.6139 C.ar    1  UNL1        0.0517
     27 C          63.5810   90.3174   12.6102 C.ar    1  UNL1        0.0292
     28 C          62.7661   85.9359   17.8435 C.3     1  UNL1        0.0897
     29 N          63.1718   86.9813   16.8472 N.3     1  UNL1       -0.2686
     30 C          62.8819   88.4278   17.1179 C.3     1  UNL1        0.0938
     31 C          63.2875   89.4732   16.1215 C.3     1  UNL1        0.1081
     32 N          63.9830   89.0720   14.8546 N.pl3   1  UNL1       -0.3046
     33 C          64.2729   87.6253   14.5839 C.3     1  UNL1        0.1081
     34 C          63.8673   86.5800   15.5802 C.3     1  UNL1        0.0938
@<TRIPOS>BOND
     1    28    29    1
     2    29    30    1
     3    30    31    1
     4    31    32    1
     5    32    22    1
     6    22    23   ar
     7    23    24   ar
     8    24    25   ar
     9    25    26   ar
    10    26    20    1
    11    20     1    1
    12     1     2   ar
    13     2     3   ar
    14     3     4   ar
    15     4    10    1
    16    10    11   ar
    17    11    12   ar
    18    12    13   ar
    19    13    16    1
    20    16    17    1
    21    16    18    2
    22    16    19    2
    23    13    14   ar
    24    14    15   ar
    25     4     5   ar
    26     5     6   ar
    27     6     7   ar
    28     7     8   ar
    29     8     9   ar
    30    26    27   ar
    31    32    33    1
    32    33    34    1
    33    34    29    1
    34    27    22   ar
    35     9     1   ar
    36     8     3   ar
    37    15    10   ar
    38    20    21    1
@<TRIPOS>MOLECULE
*****
 34 38 0 0 0
SMALL
GASTEIGER

@<TRIPOS>ATOM
      1 C          64.1301   89.0088   14.3586 C.ar    1  UNL1        0.2396
      2 N          63.3150   88.6558   13.1498 N.ar    1  UNL1       -0.1932
      3 C          63.3503   87.1650   12.9863 C.ar    1  UNL1        0.1667
      4 C          62.7285   86.2517   11.9718 C.ar    1  UNL1        0.0360
      5 C          62.9435   84.7701   12.0650 C.ar    1  UNL1        0.0046
      6 C          63.7803   84.2019   13.1726 C.ar    1  UNL1        0.0208
      7 C          64.4021   85.1153   14.1871 C.ar    1  UNL1        0.1022
      8 N          64.1871   86.5969   14.0939 N.ar    1  UNL1       -0.2081
      9 N          64.6690   87.7363   14.9420 N.ar    1  UNL1       -0.1281
     10 C          61.8916   86.8199   10.8642 C.ar    1  UNL1        0.0030
     11 C          61.6647   88.3002   10.7793 C.ar    1  UNL1        0.0014
     12 C          60.8279   88.8685    9.6717 C.ar    1  UNL1        0.0183
     13 C          60.2179   87.9564    8.6489 C.ar    1  UNL1        0.1057
     14 C          60.4449   86.4760    8.7338 C.ar    1  UNL1        0.0183
     15 C          61.2817   85.9079    9.8414 C.ar    1  UNL1        0.0014
     16 S          59.3811   88.5246    7.5413 S.O2    1  UNL1        0.0104
     17 C          58.5443   89.0928    6.4337 C.3     1  UNL1        0.1816
     18 O          60.1414   89.8146    7.6286 O.2     1  UNL1       -0.1686
     19 O          58.6208   87.2345    7.4539 O.2     1  UNL1       -0.1686
     20 N          64.3649   90.3916   14.8905 N.pl3   1  UNL1       -0.2813
     21 H          63.7236   90.7919   15.5211 H       1  UNL1        0.1551
     22 C          66.7342   92.7977   12.8056 C.ar    1  UNL1        0.0492
     23 C          68.0010   92.7097   13.6040 C.ar    1  UNL1        0.0146
     24 C          68.0558   91.8490   14.8313 C.ar    1  UNL1        0.0025
     25 C          66.8437   91.0762   15.2601 C.ar    1  UNL1        0.0148
     26 C          65.5769   91.1643   14.4617 C.ar    1  UNL1        0.0517
     27 C          65.5222   92.0250   13.2344 C.ar    1  UNL1        0.0292
     28 C          66.5152   96.2406    7.8966 C.3     1  UNL1        0.0897
     29 N          66.5699   95.3799    9.1238 N.3     1  UNL1       -0.2686
     30 C          67.1114   93.9837    9.0372 C.3     1  UNL1        0.0938
     31 C          67.1661   93.1230   10.2644 C.3     1  UNL1        0.1081
     32 N          66.6794   93.6584   11.5783 N.pl3   1  UNL1       -0.3046
     33 C          66.1380   95.0546   11.6651 C.3     1  UNL1        0.1081
     34 C          66.0832   95.9154   10.4378 C.3     1  UNL1        0.0938
@<TRIPOS>BOND
     1    28    29    1
     2    29    30    1
     3    30    31    1
     4    31    32    1
     5    32    22    1
     6    22    23   ar
     7    23    24   ar
     8    24    25   ar
     9    25    26   ar
    10    26    20    1
    11    20     1    1
    12     1     2   ar
    13     2     3   ar
    14     3     4   ar
    15     4    10    1
    16    10    11   ar
    17    11    12   ar
    18    12    13   ar
    19    13    16    1
    20    16    17    1
    21    16    18    2
    22    16    19    2
    23    13    14   ar
    24    14    15   ar
    25     4     5   ar
    26     5     6   ar
    27     6     7   ar
    28     7     8   ar
    29     8     9   ar
    30    26    27   ar
    31    32    33    1
    32    33    34    1
    33    34    29    1
    34    27    22   ar
    35     9     1   ar
    36     8     3   ar
    37    15    10   ar
    38    20    21    1
@<TRIPOS>MOLECULE
*****
 34 38 0 0 0
SMALL
GASTEIGER

@<TRIPOS>ATOM
      1 C          62.4266   90.1889   12.1373 C.ar    1  UNL1        0.2396
      2 N          63.4334   91.2168   11.7131 N.ar    1  UNL1       -0.1932
      3 C          64.3871   91.4287   12.8514 C.ar    1  UNL1        0.1667
      4 C          65.5817   92.3225   13.0068 C.ar    1  UNL1        0.0360
      5 C          66.3589   92.3195   14.2897 C.ar    1  UNL1        0.0046
      6 C          65.9415   91.4226   15.4172 C.ar    1  UNL1        0.0208
      7 C          64.7470   90.5288   15.2619 C.ar    1  UNL1        0.1022
      8 N          63.9698   90.5318   13.9790 N.ar    1  UNL1       -0.2081
      9 N          62.7581   89.7656   13.5376 N.ar    1  UNL1       -0.1281
     10 C          65.9990   93.2194   11.8791 C.ar    1  UNL1        0.0030
     11 C          65.8289   94.7048   11.9999 C.ar    1  UNL1        0.0014
     12 C          66.2462   95.6017   10.8723 C.ar    1  UNL1        0.0183
     13 C          66.8337   95.0131    9.6239 C.ar    1  UNL1        0.1057
     14 C          67.0038   93.5276    9.5031 C.ar    1  UNL1        0.0183
     15 C          66.5865   92.6308   10.6307 C.ar    1  UNL1        0.0014
     16 S          67.2510   95.9099    8.4963 S.O2    1  UNL1        0.0104
     17 C          67.6683   96.8067    7.3687 C.3     1  UNL1        0.1816
     18 O          66.6078   94.9754    7.5150 O.2     1  UNL1       -0.1686
     19 O          67.8943   96.8444    9.4775 O.2     1  UNL1       -0.1686
     20 N          61.2882   89.6746   11.3068 N.pl3   1  UNL1       -0.2813
     21 H          60.4652   90.2072   11.2161 H       1  UNL1        0.1551
     22 C          62.0381   85.8300   10.6694 C.ar    1  UNL1        0.0492
     23 C          61.6347   85.6972    9.2307 C.ar    1  UNL1        0.0146
     24 C          61.1158   86.8903    8.4841 C.ar    1  UNL1        0.0025
     25 C          61.0003   88.2161    9.1762 C.ar    1  UNL1        0.0148
     26 C          61.4037   88.3488   10.6148 C.ar    1  UNL1        0.0517
     27 C          61.9226   87.1558   11.3614 C.ar    1  UNL1        0.0292
     28 C          64.1138   81.0578   13.6556 C.3     1  UNL1        0.0897
     29 N          63.5949   82.2508   12.9091 N.3     1  UNL1       -0.2686
     30 C          62.9088   83.3595   13.6507 C.3     1  UNL1        0.0938
     31 C          62.3899   84.5525   12.9042 C.3     1  UNL1        0.1081
     32 N          62.5571   84.6369   11.4159 N.pl3   1  UNL1       -0.3046
     33 C          63.2432   83.5283   10.6742 C.3     1  UNL1        0.1081
     34 C          63.7621   82.3352   11.4207 C.3     1  UNL1        0.0938
@<TRIPOS>BOND
     1    28    29    1
     2    29    30    1
     3    30    31    1
     4    31    32    1
     5    32    22    1
     6    22    23   ar
     7    23    24   ar
     8    24    25   ar
     9    25    26   ar
    10    26    20    1
    11    20     1    1
    12     1     2   ar
    13     2     3   ar
    14     3     4   ar
    15     4    10    1
    16    10    11   ar
    17    11    12   ar
    18    12    13   ar
    19    13    16    1
    20    16    17    1
    21    16    18    2
    22    16    19    2
    23    13    14   ar
    24    14    15   ar
    25     4     5   ar
    26     5     6   ar
    27     6     7   ar
    28     7     8   ar
    29     8     9   ar
    30    26    27   ar
    31    32    33    1
    32    33    34    1
    33    34    29    1
    34    27    22   ar
    35     9     1   ar
    36     8     3   ar
    37    15    10   ar
    38    20    21    1
@<TRIPOS>MOLECULE
*****
 34 38 0 0 0
SMALL
GASTEIGER

@<TRIPOS>ATOM
      1 C          60.0955   88.9096    8.2761 C.ar    1  UNL1        0.2396
      2 N          60.7292   87.8103    9.0760 N.ar    1  UNL1       -0.1932
      3 C          61.5486   88.4410   10.1628 C.ar    1  UNL1        0.1667
      4 C          62.3943   87.8517   11.2525 C.ar    1  UNL1        0.0360
      5 C          63.1125   88.7514   12.2141 C.ar    1  UNL1        0.0046
      6 C          62.9851   90.2404   12.0858 C.ar    1  UNL1        0.0208
      7 C          62.1395   90.8297   10.9960 C.ar    1  UNL1        0.1022
      8 N          61.4212   89.9300   10.0345 N.ar    1  UNL1       -0.2081
      9 N          60.5232   90.2197    8.8685 N.ar    1  UNL1       -0.1281
     10 C          62.5216   86.3625   11.3808 C.ar    1  UNL1        0.0030
     11 C          62.5707   85.5053   10.1508 C.ar    1  UNL1        0.0014
     12 C          62.6981   84.0162   10.2791 C.ar    1  UNL1        0.0183
     13 C          62.7763   83.3844   11.6373 C.ar    1  UNL1        0.1057
     14 C          62.7272   84.2417   12.8672 C.ar    1  UNL1        0.0183
     15 C          62.5999   85.7307   12.7389 C.ar    1  UNL1        0.0014
     16 S          62.9037   81.8953   11.7655 S.O2    1  UNL1        0.0104
     17 C          63.0311   80.4063   11.8938 C.3     1  UNL1        0.1816
     18 O          63.7475   81.8607   10.5259 O.2     1  UNL1       -0.1686
     19 O          62.0599   81.9300   13.0052 O.2     1  UNL1       -0.1686
     20 N          59.1925   88.7304    7.0918 N.pl3   1  UNL1       -0.2813
     21 H          58.7272   87.8740    6.9526 H       1  UNL1        0.1551
     22 C          59.9606   91.4710    4.3261 C.ar    1  UNL1        0.0492
     23 C          58.6106   92.1071    4.1747 C.ar    1  UNL1        0.0146
     24 C          57.4546   91.6176    4.9957 C.ar    1  UNL1        0.0025
     25 C          57.6486   90.4920    5.9681 C.ar    1  UNL1        0.0148
     26 C          58.9986   89.8559    6.1194 C.ar    1  UNL1        0.0517
     27 C          60.1546   90.3454    5.2984 C.ar    1  UNL1        0.0292
     28 C          64.5847   93.4290    1.0422 C.3     1  UNL1        0.0897
     29 N          63.4287   92.9395    1.8632 N.3     1  UNL1       -0.2686
     30 C          63.6060   91.7705    2.7862 C.3     1  UNL1        0.0938
     31 C          62.4500   91.2810    3.6072 C.3     1  UNL1        0.1081
     32 N          61.1167   91.9605    3.5051 N.pl3   1  UNL1       -0.3046
     33 C          60.9393   93.1295    2.5821 C.3     1  UNL1        0.1081
     34 C          62.0953   93.6190    1.7611 C.3     1  UNL1        0.0938
@<TRIPOS>BOND
     1    28    29    1
     2    29    30    1
     3    30    31    1
     4    31    32    1
     5    32    22    1
     6    22    23   ar
     7    23    24   ar
     8    24    25   ar
     9    25    26   ar
    10    26    20    1
    11    20     1    1
    12     1     2   ar
    13     2     3   ar
    14     3     4   ar
    15     4    10    1
    16    10    11   ar
    17    11    12   ar
    18    12    13   ar
    19    13    16    1
    20    16    17    1
    21    16    18    2
    22    16    19    2
    23    13    14   ar
    24    14    15   ar
    25     4     5   ar
    26     5     6   ar
    27     6     7   ar
    28     7     8   ar
    29     8     9   ar
    30    26    27   ar
    31    32    33    1
    32    33    34    1
    33    34    29    1
    34    27    22   ar
    35     9     1   ar
    36     8     3   ar
    37    15    10   ar
    38    20    21    1
@<TRIPOS>MOLECULE
*****
 34 38 0 0 0
SMALL
GASTEIGER

@<TRIPOS>ATOM
      1 C          63.9364   90.0241   15.2026 C.ar    1  UNL1        0.2396
      2 N          63.9070   88.6306   14.6481 N.ar    1  UNL1       -0.1932
      3 C          63.4883   87.7023   15.7495 C.ar    1  UNL1        0.1667
      4 C          63.2862   86.2164   15.7872 C.ar    1  UNL1        0.0360
      5 C          62.8548   85.5502   17.0600 C.ar    1  UNL1        0.0046
      6 C          62.6254   86.3699   18.2951 C.ar    1  UNL1        0.0208
      7 C          62.8274   87.8557   18.2574 C.ar    1  UNL1        0.1022
      8 N          63.2588   88.5219   16.9846 N.ar    1  UNL1       -0.2081
      9 N          63.5358   89.9569   16.6466 N.ar    1  UNL1       -0.1281
     10 C          63.5157   85.3967   14.5520 C.ar    1  UNL1        0.0030
     11 C          62.8599   85.7867   13.2606 C.ar    1  UNL1        0.0014
     12 C          63.0893   84.9670   12.0254 C.ar    1  UNL1        0.0183
     13 C          63.9746   83.7574   12.0818 C.ar    1  UNL1        0.1057
     14 C          64.6304   83.3675   13.3733 C.ar    1  UNL1        0.0183
     15 C          64.4010   84.1871   14.6084 C.ar    1  UNL1        0.0014
     16 S          64.2040   82.9377   10.8467 S.O2    1  UNL1        0.0104
     17 C          64.4335   82.1181    9.6116 C.3     1  UNL1        0.1816
     18 O          64.8859   81.8864   11.6711 O.2     1  UNL1       -0.1686
     19 O          63.5222   83.9891   10.0223 O.2     1  UNL1       -0.1686
     20 N          64.3021   91.2666   14.4460 N.pl3   1  UNL1       -0.2813
     21 H          64.6554   92.0497   14.9268 H       1  UNL1        0.1551
     22 C          63.0003   90.4282   10.7920 C.ar    1  UNL1        0.0492
     23 C          63.7843   91.4149    9.9784 C.ar    1  UNL1        0.0146
     24 C          64.7409   92.3521   10.6540 C.ar    1  UNL1        0.0025
     25 C          64.9135   92.3026   12.1433 C.ar    1  UNL1        0.0148
     26 C          64.1295   91.3160   12.9568 C.ar    1  UNL1        0.0517
     27 C          63.1729   90.3788   12.2811 C.ar    1  UNL1        0.0292
     28 C          59.1737   86.6794    8.0893 C.3     1  UNL1        0.0897
     29 N          60.1304   87.6166    8.7650 N.3     1  UNL1       -0.2686
     30 C          61.3888   87.0856    9.3848 C.3     1  UNL1        0.0938
     31 C          62.3454   88.0228   10.0605 C.3     1  UNL1        0.1081
     32 N          62.0436   89.4910   10.1163 N.pl3   1  UNL1       -0.3046
     33 C          60.7851   90.0221    9.4964 C.3     1  UNL1        0.1081
     34 C          59.8285   89.0849    8.8207 C.3     1  UNL1        0.0938
@<TRIPOS>BOND
     1    28    29    1
     2    29    30    1
     3    30    31    1
     4    31    32    1
     5    32    22    1
     6    22    23   ar
     7    23    24   ar
     8    24    25   ar
     9    25    26   ar
    10    26    20    1
    11    20     1    1
    12     1     2   ar
    13     2     3   ar
    14     3     4   ar
    15     4    10    1
    16    10    11   ar
    17    11    12   ar
    18    12    13   ar
    19    13    16    1
    20    16    17    1
    21    16    18    2
    22    16    19    2
    23    13    14   ar
    24    14    15   ar
    25     4     5   ar
    26     5     6   ar
    27     6     7   ar
    28     7     8   ar
    29     8     9   ar
    30    26    27   ar
    31    32    33    1
    32    33    34    1
    33    34    29    1
    34    27    22   ar
    35     9     1   ar
    36     8     3   ar
    37    15    10   ar
    38    20    21    1
