@<TRIPOS>MOLECULE
*****
 52 58 0 0 0
SMALL
GASTEIGER

@<TRIPOS>ATOM
      1 C          60.0513   90.0474    6.9116 C.ar    1  UNL1        0.0481
      2 C          60.8104   90.6197    8.0719 C.ar    1  UNL1        0.0176
      3 C          60.8871   89.8627    9.3647 C.ar    1  UNL1        0.0382
      4 C          60.2047   88.5335    9.4971 C.ar    1  UNL1        0.1386
      5 C          59.4455   87.9613    8.3368 C.ar    1  UNL1        0.0382
      6 C          59.3688   88.7182    7.0441 C.ar    1  UNL1        0.0176
      7 N          59.8212   92.3183    3.0335 N.pl3   1  UNL1       -0.3041
      8 C          58.5701   92.0298    3.8090 C.3     1  UNL1        0.1122
      9 C          58.6467   91.2728    5.1018 C.3     1  UNL1        0.1122
     10 N          59.9746   90.8044    5.6190 N.pl3   1  UNL1       -0.3041
     11 C          61.2257   91.0929    4.8434 C.3     1  UNL1        0.1122
     12 C          61.1490   91.8499    3.5507 C.3     1  UNL1        0.1122
     13 C          59.5913   94.5893   -0.8446 C.ar    1  UNL1        0.0699
     14 C          59.8452   95.3218    0.4395 C.ar    1  UNL1        0.0190
     15 C          59.9218   94.5648    1.7322 C.ar    1  UNL1        0.0160
     16 C          59.7445   93.0753    1.7407 C.ar    1  UNL1        0.0480
     17 C          59.4906   92.3429    0.4566 C.ar    1  UNL1        0.0160
     18 C          59.4140   93.0999   -0.8360 C.ar    1  UNL1        0.0190
     19 N          58.7508   96.1668   -4.2900 N.ar    1  UNL1       -0.2000
     20 N          60.0426   96.8557   -3.9632 N.ar    1  UNL1       -0.1442
     21 C          60.5146   96.3486   -2.6328 C.ar    1  UNL1        0.2073
     22 N          59.5146   95.3463   -2.1374 N.ar    1  UNL1       -0.2398
     23 C          58.4245   95.2339   -3.1616 C.ar    1  UNL1        0.3523
     24 O          57.2197   94.3448   -3.0730 O.2     1  UNL1       -0.2444
     25 C          57.9296   96.3742   -5.5280 C.3     1  UNL1        0.1365
     26 C          56.4327   96.4088   -5.4379 C.3     1  UNL1        0.1330
     27 C          55.6007   95.9969   -6.6160 C.3     1  UNL1        0.0338
     28 O          55.7678   96.8555   -4.1696 O.3     1  UNL1       -0.3825
     29 H          56.4442   97.0846   -3.5132 H       1  UNL1        0.2104
     30 C          59.7108   95.6180   -7.2616 C.3     1  UNL1        0.0021
     31 C          58.6052   96.5471   -6.8560 C.3     1  UNL1        0.0270
     32 O          60.2814   87.7766   10.7898 O.3     1  UNL1       -0.4754
     33 C          61.6141   87.3561   11.3347 C.3     1  UNL1        0.2079
     34 C          62.4503   88.3325   12.1078 C.3     1  UNL1        0.0761
     35 C          62.4482   89.8229   11.9383 C.3     1  UNL1        0.1462
     36 O          63.4319   90.4015   12.9117 O.3     1  UNL1       -0.3523
     37 C          64.0419   89.2686   13.6829 C.3     1  UNL1        0.1362
     38 C          63.4352   87.9900   13.1860 C.3     1  UNL1        0.0398
     39 C          64.8096   90.3581   14.3710 C.ar    1  UNL1        0.0315
     40 C          66.0949   90.8578   13.7808 C.ar    1  UNL1        0.0026
     41 C          66.8627   91.9473   14.4690 C.ar    1  UNL1        0.0295
     42 C          66.3452   92.5371   15.7473 C.ar    1  UNL1        0.1424
     43 F          67.1129   93.6266   16.4354 F       1  UNL1       -0.2041
     44 C          65.0599   92.0375   16.3376 C.ar    1  UNL1        0.0590
     45 C          64.2920   90.9480   15.6494 C.ar    1  UNL1        0.1406
     46 F          63.0068   90.4483   16.2396 F       1  UNL1       -0.2044
     47 C          64.8124   88.3636   14.5978 C.3     1  UNL1        0.1605
     48 N          64.0947   87.3135   15.3930 N.ar    1  UNL1       -0.2273
     49 C          64.2194   85.8300   15.2097 C.ar    1  UNL1        0.1973
     50 N          63.3282   85.1622   16.2145 N.ar    1  UNL1       -0.2007
     51 C          62.6526   86.2330   17.0189 C.ar    1  UNL1        0.2210
     52 N          63.1264   87.5626   16.5112 N.ar    1  UNL1       -0.1451
@<TRIPOS>BOND
     1    30    31    1
     2    25    31    1
     3    25    26    1
     4    26    27    1
     5    26    28    1
     6    25    19    1
     7    19    20   ar
     8    20    21   ar
     9    21    22   ar
    10    22    13    1
    11    13    14   ar
    12    14    15   ar
    13    15    16   ar
    14    16     7    1
    15     7     8    1
    16     8     9    1
    17     9    10    1
    18    10     1    1
    19     1     2   ar
    20     2     3   ar
    21     3     4   ar
    22     4    32    1
    23    32    33    1
    24    34    33    1
    25    34    35    1
    26    35    36    1
    27    36    37    1
    28    37    47    1
    29    47    48    1
    30    48    49   ar
    31    49    50   ar
    32    50    51   ar
    33    51    52   ar
    34    37    39    1
    35    39    40   ar
    36    40    41   ar
    37    41    42   ar
    38    42    43    1
    39    42    44   ar
    40    44    45   ar
    41    45    46    1
    42    37    38    1
    43     4     5   ar
    44     5     6   ar
    45    10    11    1
    46    11    12    1
    47    16    17   ar
    48    17    18   ar
    49    22    23   ar
    50    23    24    2
    51    23    19   ar
    52    18    13   ar
    53    12     7    1
    54     6     1   ar
    55    38    34    1
    56    52    48   ar
    57    45    39   ar
    58    28    29    1
@<TRIPOS>MOLECULE
*****
 52 58 0 0 0
SMALL
GASTEIGER

@<TRIPOS>ATOM
      1 C          59.4371   93.4815    1.8152 C.ar    1  UNL1        0.0481
      2 C          58.6426   92.9703    0.6501 C.ar    1  UNL1        0.0176
      3 C          58.4155   93.8473   -0.5454 C.ar    1  UNL1        0.0382
      4 C          58.9828   95.2356   -0.5758 C.ar    1  UNL1        0.1386
      5 C          59.7774   95.7467    0.5893 C.ar    1  UNL1        0.0382
      6 C          60.0045   94.8697    1.7848 C.ar    1  UNL1        0.0176
      7 N          60.1185   90.8503    5.4016 N.pl3   1  UNL1       -0.3041
      8 C          61.2747   91.2482    4.5329 C.3     1  UNL1        0.1122
      9 C          61.0476   92.1253    3.3374 C.3     1  UNL1        0.1122
     10 N          59.6643   92.6044    3.0106 N.pl3   1  UNL1       -0.3041
     11 C          58.5080   92.2064    3.8794 C.3     1  UNL1        0.1122
     12 C          58.7351   91.3293    5.0748 C.3     1  UNL1        0.1122
     13 C          60.7998   88.2191    8.9881 C.ar    1  UNL1        0.0699
     14 C          61.3730   89.6049    8.9548 C.ar    1  UNL1        0.0190
     15 C          61.1459   90.4819    7.7593 C.ar    1  UNL1        0.0160
     16 C          60.3456   89.9732    6.5971 C.ar    1  UNL1        0.0480
     17 C          59.7724   88.5874    6.6304 C.ar    1  UNL1        0.0160
     18 C          59.9995   87.7104    7.8259 C.ar    1  UNL1        0.0190
     19 N          61.8642   85.5813   11.6290 N.ar    1  UNL1       -0.2000
     20 N          60.8884   86.4035   12.4176 N.ar    1  UNL1       -0.1442
     21 C          60.3710   87.4917   11.5243 C.ar    1  UNL1        0.2073
     22 N          61.0269   87.3420   10.1836 N.ar    1  UNL1       -0.2398
     23 C          61.9498   86.1613   10.2483 C.ar    1  UNL1        0.3523
     24 O          62.8076   85.6503    9.1290 O.2     1  UNL1       -0.2444
     25 C          62.6215   84.3884   12.1327 C.3     1  UNL1        0.1365
     26 C          63.1280   84.3629   13.5443 C.3     1  UNL1        0.1330
     27 C          64.5896   84.1604   13.8132 C.3     1  UNL1        0.0338
     28 O          62.1726   84.5399   14.6872 O.3     1  UNL1       -0.3825
     29 H          61.2739   84.6583   14.3420 H       1  UNL1        0.2104
     30 C          64.2599   82.9412   10.7287 C.3     1  UNL1        0.0021
     31 C          62.8722   83.2211   11.2247 C.3     1  UNL1        0.0270
     32 O          58.7557   96.1126   -1.7713 O.3     1  UNL1       -0.4754
     33 C          58.7765   95.5217   -3.1498 C.3     1  UNL1        0.2079
     34 C          60.0858   95.2398   -3.8253 C.3     1  UNL1        0.0761
     35 C          60.2677   94.5312   -5.1348 C.3     1  UNL1        0.1462
     36 O          61.7373   94.4704   -5.4288 O.3     1  UNL1       -0.3523
     37 C          62.4637   95.1415   -4.3010 C.3     1  UNL1        0.1362
     38 C          61.4430   95.6170   -3.3100 C.3     1  UNL1        0.0398
     39 C          63.6899   94.7910   -5.0907 C.ar    1  UNL1        0.0315
     40 C          64.4136   95.8538   -5.8632 C.ar    1  UNL1        0.0026
     41 C          65.6398   95.5033   -6.6530 C.ar    1  UNL1        0.0295
     42 C          66.1422   94.0902   -6.6703 C.ar    1  UNL1        0.1424
     43 F          67.3683   93.7397   -7.4601 F       1  UNL1       -0.2041
     44 C          65.4185   93.0273   -5.8979 C.ar    1  UNL1        0.0590
     45 C          64.1923   93.3778   -5.1081 C.ar    1  UNL1        0.1406
     46 F          63.4685   92.3150   -4.3356 F       1  UNL1       -0.2044
     47 C          63.4465   95.7393   -3.3383 C.3     1  UNL1        0.1605
     48 N          63.5378   95.2135   -1.9364 N.ar    1  UNL1       -0.2273
     49 C          63.3692   96.0165   -0.6808 C.ar    1  UNL1        0.1973
     50 N          63.5410   95.0917    0.4875 N.ar    1  UNL1       -0.2007
     51 C          63.8158   93.7170   -0.0460 C.ar    1  UNL1        0.2210
     52 N          63.8139   93.7923   -1.5441 N.ar    1  UNL1       -0.1451
@<TRIPOS>BOND
     1    30    31    1
     2    25    31    1
     3    25    26    1
     4    26    27    1
     5    26    28    1
     6    25    19    1
     7    19    20   ar
     8    20    21   ar
     9    21    22   ar
    10    22    13    1
    11    13    14   ar
    12    14    15   ar
    13    15    16   ar
    14    16     7    1
    15     7     8    1
    16     8     9    1
    17     9    10    1
    18    10     1    1
    19     1     2   ar
    20     2     3   ar
    21     3     4   ar
    22     4    32    1
    23    32    33    1
    24    34    33    1
    25    34    35    1
    26    35    36    1
    27    36    37    1
    28    37    47    1
    29    47    48    1
    30    48    49   ar
    31    49    50   ar
    32    50    51   ar
    33    51    52   ar
    34    37    39    1
    35    39    40   ar
    36    40    41   ar
    37    41    42   ar
    38    42    43    1
    39    42    44   ar
    40    44    45   ar
    41    45    46    1
    42    37    38    1
    43     4     5   ar
    44     5     6   ar
    45    10    11    1
    46    11    12    1
    47    16    17   ar
    48    17    18   ar
    49    22    23   ar
    50    23    24    2
    51    23    19   ar
    52    18    13   ar
    53    12     7    1
    54     6     1   ar
    55    38    34    1
    56    52    48   ar
    57    45    39   ar
    58    28    29    1
@<TRIPOS>MOLECULE
*****
 52 58 0 0 0
SMALL
GASTEIGER

@<TRIPOS>ATOM
      1 C          60.1827   89.9085    7.2902 C.ar    1  UNL1        0.0481
      2 C          60.9705   90.5294    8.4054 C.ar    1  UNL1        0.0176
      3 C          61.1582   89.7868    9.6951 C.ar    1  UNL1        0.0382
      4 C          60.5580   88.4232    9.8696 C.ar    1  UNL1        0.1386
      5 C          59.7701   87.8023    8.7543 C.ar    1  UNL1        0.0382
      6 C          59.5825   88.5449    7.4647 C.ar    1  UNL1        0.0176
      7 N          59.6198   92.1363    3.4211 N.pl3   1  UNL1       -0.3041
      8 C          58.4374   91.8414    4.2956 C.3     1  UNL1        0.1122
      9 C          58.6250   91.0987    5.5853 C.3     1  UNL1        0.1122
     10 N          59.9951   90.6511    6.0005 N.pl3   1  UNL1       -0.3041
     11 C          61.1776   90.9460    5.1260 C.3     1  UNL1        0.1122
     12 C          60.9899   91.6886    3.8363 C.3     1  UNL1        0.1122
     13 C          59.0570   94.3641   -0.4480 C.ar    1  UNL1        0.0699
     14 C          58.4099   93.0251   -0.2526 C.ar    1  UNL1        0.0190
     15 C          58.5975   92.2825    1.0371 C.ar    1  UNL1        0.0160
     16 C          59.4323   92.8790    2.1314 C.ar    1  UNL1        0.0480
     17 C          60.0794   94.2180    1.9360 C.ar    1  UNL1        0.0160
     18 C          59.8918   94.9606    0.6463 C.ar    1  UNL1        0.0190
     19 N          58.2489   95.6470   -4.0211 N.ar    1  UNL1       -0.2000
     20 N          58.9128   96.8522   -3.4237 N.ar    1  UNL1       -0.1442
     21 C          59.2963   96.5183   -2.0125 C.ar    1  UNL1        0.2073
     22 N          58.8694   95.1068   -1.7377 N.ar    1  UNL1       -0.2398
     23 C          58.2221   94.5683   -2.9791 C.ar    1  UNL1        0.3523
     24 O          57.6487   93.1927   -3.1488 O.2     1  UNL1       -0.2444
     25 C          57.7069   95.5394   -5.4156 C.3     1  UNL1        0.1365
     26 C          56.2968   95.0793   -5.6389 C.3     1  UNL1        0.1330
     27 C          55.1681   96.0654   -5.5817 C.3     1  UNL1        0.0338
     28 O          56.0155   93.6327   -5.9194 O.3     1  UNL1       -0.3825
     29 H          56.8485   93.1358   -5.9214 H       1  UNL1        0.2104
     30 C          60.0402   95.5718   -6.5579 C.3     1  UNL1        0.0021
     31 C          58.5751   95.8920   -6.5869 C.3     1  UNL1        0.0270
     32 O          60.7456   87.6806   11.1593 O.3     1  UNL1       -0.4754
     33 C          62.1140   87.2224   11.5686 C.3     1  UNL1        0.2079
     34 C          62.9900   88.1191   12.3924 C.3     1  UNL1        0.0761
     35 C          63.9572   87.6772   13.4503 C.3     1  UNL1        0.1462
     36 O          64.6176   88.9000   14.0147 O.3     1  UNL1       -0.3523
     37 C          64.0584   90.0978   13.3056 C.3     1  UNL1        0.1362
     38 C          63.0525   89.6151   12.3030 C.3     1  UNL1        0.0398
     39 C          64.9881   90.8643   14.1990 C.ar    1  UNL1        0.0315
     40 C          66.4234   91.0502   13.8051 C.ar    1  UNL1        0.0026
     41 C          67.3531   91.8168   14.6985 C.ar    1  UNL1        0.0295
     42 C          66.8475   92.3972   15.9858 C.ar    1  UNL1        0.1424
     43 F          67.7771   93.1637   16.8792 F       1  UNL1       -0.2041
     44 C          65.4121   92.2113   16.3798 C.ar    1  UNL1        0.0590
     45 C          64.4824   91.4448   15.4864 C.ar    1  UNL1        0.1406
     46 F          63.0470   91.2588   15.8803 F       1  UNL1       -0.2044
     47 C          63.6937   91.4557   12.7833 C.3     1  UNL1        0.1605
     48 N          64.6870   92.2421   11.9801 N.ar    1  UNL1       -0.2273
     49 C          65.1040   91.9550   10.5682 C.ar    1  UNL1        0.1973
     50 N          66.1123   92.9890   10.1633 N.ar    1  UNL1       -0.2007
     51 C          66.3186   93.9152   11.3251 C.ar    1  UNL1        0.2210
     52 N          65.4376   93.4535   12.4479 N.ar    1  UNL1       -0.1451
@<TRIPOS>BOND
     1    30    31    1
     2    25    31    1
     3    25    26    1
     4    26    27    1
     5    26    28    1
     6    25    19    1
     7    19    20   ar
     8    20    21   ar
     9    21    22   ar
    10    22    13    1
    11    13    14   ar
    12    14    15   ar
    13    15    16   ar
    14    16     7    1
    15     7     8    1
    16     8     9    1
    17     9    10    1
    18    10     1    1
    19     1     2   ar
    20     2     3   ar
    21     3     4   ar
    22     4    32    1
    23    32    33    1
    24    34    33    1
    25    34    35    1
    26    35    36    1
    27    36    37    1
    28    37    47    1
    29    47    48    1
    30    48    49   ar
    31    49    50   ar
    32    50    51   ar
    33    51    52   ar
    34    37    39    1
    35    39    40   ar
    36    40    41   ar
    37    41    42   ar
    38    42    43    1
    39    42    44   ar
    40    44    45   ar
    41    45    46    1
    42    37    38    1
    43     4     5   ar
    44     5     6   ar
    45    10    11    1
    46    11    12    1
    47    16    17   ar
    48    17    18   ar
    49    22    23   ar
    50    23    24    2
    51    23    19   ar
    52    18    13   ar
    53    12     7    1
    54     6     1   ar
    55    38    34    1
    56    52    48   ar
    57    45    39   ar
    58    28    29    1
@<TRIPOS>MOLECULE
*****
 52 58 0 0 0
SMALL
GASTEIGER

@<TRIPOS>ATOM
      1 C          60.3827   90.2733    7.0321 C.ar    1  UNL1        0.0481
      2 C          61.3003   90.8696    8.0580 C.ar    1  UNL1        0.0176
      3 C          61.4059   90.2503    9.4201 C.ar    1  UNL1        0.0382
      4 C          60.5940   89.0346    9.7563 C.ar    1  UNL1        0.1386
      5 C          59.6764   88.4383    8.7303 C.ar    1  UNL1        0.0382
      6 C          59.5708   89.0577    7.3683 C.ar    1  UNL1        0.0176
      7 N          60.0658   92.1315    2.9459 N.pl3   1  UNL1       -0.3041
      8 C          58.8594   92.0639    3.8347 C.3     1  UNL1        0.1122
      9 C          58.9650   91.4446    5.1968 C.3     1  UNL1        0.1122
     10 N          60.2771   90.8927    5.6701 N.pl3   1  UNL1       -0.3041
     11 C          61.4835   90.9602    4.7812 C.3     1  UNL1        0.1122
     12 C          61.3779   91.5796    3.4192 C.3     1  UNL1        0.1122
     13 C          59.7490   93.9895   -1.1403 C.ar    1  UNL1        0.0699
     14 C          60.2472   92.5824   -0.9928 C.ar    1  UNL1        0.0190
     15 C          60.3528   91.9630    0.3692 C.ar    1  UNL1        0.0160
     16 C          59.9602   92.7508    1.5838 C.ar    1  UNL1        0.0480
     17 C          59.4620   94.1580    1.4363 C.ar    1  UNL1        0.0160
     18 C          59.3564   94.7773    0.0743 C.ar    1  UNL1        0.0190
     19 N          59.0533   94.9893   -4.8257 N.ar    1  UNL1       -0.2000
     20 N          59.9086   96.1347   -4.3711 N.ar    1  UNL1       -0.1442
     21 C          60.2732   95.8996   -2.9353 C.ar    1  UNL1        0.2073
     22 N          59.6434   94.6089   -2.5024 N.ar    1  UNL1       -0.2398
     23 C          58.8895   94.0463   -3.6708 C.ar    1  UNL1        0.3523
     24 O          58.1088   92.7655   -3.6822 O.2     1  UNL1       -0.2444
     25 C          58.4652   94.8171   -6.1948 C.3     1  UNL1        0.1365
     26 C          56.9830   94.9320   -6.3943 C.3     1  UNL1        0.1330
     27 C          56.4153   96.1014   -7.1426 C.3     1  UNL1        0.0338
     28 O          56.0684   93.8772   -5.8454 O.3     1  UNL1       -0.3825
     29 H          56.5929   93.1978   -5.3935 H       1  UNL1        0.2104
     30 C          60.8369   94.3736   -7.1584 C.3     1  UNL1        0.0021
     31 C          59.3593   94.5300   -7.3645 C.3     1  UNL1        0.0270
     32 O          60.6997   88.4153   11.1183 O.3     1  UNL1       -0.4754
     33 C          61.9798   87.7620   11.5479 C.3     1  UNL1        0.2079
     34 C          62.1209   86.2703   11.4779 C.3     1  UNL1        0.0761
     35 C          61.5448   85.3789   10.4178 C.3     1  UNL1        0.1462
     36 O          61.9307   83.9658   10.7404 O.3     1  UNL1       -0.3523
     37 C          62.7452   83.9837   11.9999 C.3     1  UNL1        0.1362
     38 C          62.8628   85.4080   12.4557 C.3     1  UNL1        0.0398
     39 C          62.8004   82.4983   11.7986 C.ar    1  UNL1        0.0315
     40 C          62.2874   81.5774   12.8657 C.ar    1  UNL1        0.0026
     41 C          62.3425   80.0919   12.6645 C.ar    1  UNL1        0.0295
     42 C          62.9106   79.5275   11.3962 C.ar    1  UNL1        0.1424
     43 F          62.9657   78.0421   11.1949 F       1  UNL1       -0.2041
     44 C          63.4236   80.4484   10.3290 C.ar    1  UNL1        0.0590
     45 C          63.3684   81.9339   10.5303 C.ar    1  UNL1        0.1406
     46 F          63.8814   82.8549    9.4632 F       1  UNL1       -0.2044
     47 C          63.5713   83.6911   13.2173 C.3     1  UNL1        0.1605
     48 N          63.2983   84.4172   14.5012 N.ar    1  UNL1       -0.2273
     49 C          62.0312   84.3485   15.3008 C.ar    1  UNL1        0.1973
     50 N          62.1943   85.2283   16.5046 N.ar    1  UNL1       -0.2007
     51 C          63.5624   85.8408   16.4490 C.ar    1  UNL1        0.2210
     52 N          64.2447   85.3396   15.2108 N.ar    1  UNL1       -0.1451
@<TRIPOS>BOND
     1    30    31    1
     2    25    31    1
     3    25    26    1
     4    26    27    1
     5    26    28    1
     6    25    19    1
     7    19    20   ar
     8    20    21   ar
     9    21    22   ar
    10    22    13    1
    11    13    14   ar
    12    14    15   ar
    13    15    16   ar
    14    16     7    1
    15     7     8    1
    16     8     9    1
    17     9    10    1
    18    10     1    1
    19     1     2   ar
    20     2     3   ar
    21     3     4   ar
    22     4    32    1
    23    32    33    1
    24    34    33    1
    25    34    35    1
    26    35    36    1
    27    36    37    1
    28    37    47    1
    29    47    48    1
    30    48    49   ar
    31    49    50   ar
    32    50    51   ar
    33    51    52   ar
    34    37    39    1
    35    39    40   ar
    36    40    41   ar
    37    41    42   ar
    38    42    43    1
    39    42    44   ar
    40    44    45   ar
    41    45    46    1
    42    37    38    1
    43     4     5   ar
    44     5     6   ar
    45    10    11    1
    46    11    12    1
    47    16    17   ar
    48    17    18   ar
    49    22    23   ar
    50    23    24    2
    51    23    19   ar
    52    18    13   ar
    53    12     7    1
    54     6     1   ar
    55    38    34    1
    56    52    48   ar
    57    45    39   ar
    58    28    29    1
@<TRIPOS>MOLECULE
*****
 52 58 0 0 0
SMALL
GASTEIGER

@<TRIPOS>ATOM
      1 C          60.2002   89.9854    6.8263 C.ar    1  UNL1        0.0481
      2 C          59.3103   88.7880    6.9822 C.ar    1  UNL1        0.0176
      3 C          59.2759   88.0435    8.2841 C.ar    1  UNL1        0.0382
      4 C          60.1313   88.4966    9.4299 C.ar    1  UNL1        0.1386
      5 C          61.0212   89.6940    9.2740 C.ar    1  UNL1        0.0382
      6 C          61.0556   90.4384    7.9722 C.ar    1  UNL1        0.0176
      7 N          60.3036   92.2184    2.9208 N.pl3   1  UNL1       -0.3041
      8 C          59.0160   92.0950    3.6803 C.3     1  UNL1        0.1122
      9 C          58.9815   91.3506    4.9822 C.3     1  UNL1        0.1122
     10 N          60.2347   90.7297    5.5245 N.pl3   1  UNL1       -0.3041
     11 C          61.5223   90.8531    4.7649 C.3     1  UNL1        0.1122
     12 C          61.5568   91.5975    3.4632 C.3     1  UNL1        0.1122
     13 C          60.4071   94.4515   -0.9846 C.ar    1  UNL1        0.0699
     14 C          59.3252   94.7373    0.0143 C.ar    1  UNL1        0.0190
     15 C          59.2907   93.9929    1.3161 C.ar    1  UNL1        0.0160
     16 C          60.3381   92.9628    1.6190 C.ar    1  UNL1        0.0480
     17 C          61.4200   92.6770    0.6201 C.ar    1  UNL1        0.0160
     18 C          61.4545   93.4214   -0.6817 C.ar    1  UNL1        0.0190
     19 N          60.0416   95.8278   -4.5954 N.ar    1  UNL1       -0.2000
     20 N          60.9479   96.8549   -3.9841 N.ar    1  UNL1       -0.1442
     21 C          61.1951   96.4644   -2.5571 C.ar    1  UNL1        0.2073
     22 N          60.4416   95.1959   -2.2865 N.ar    1  UNL1       -0.2398
     23 C          59.7287   94.8025   -3.5462 C.ar    1  UNL1        0.3523
     24 O          58.8561   93.5956   -3.7254 O.2     1  UNL1       -0.2444
     25 C          59.5368   95.8263   -6.0080 C.3     1  UNL1        0.1365
     26 C          60.0348   94.7994   -6.9813 C.3     1  UNL1        0.1330
     27 C          61.4625   94.8309   -7.4400 C.3     1  UNL1        0.0338
     28 O          59.1048   93.7408   -7.4960 O.3     1  UNL1       -0.3825
     29 H          58.2265   93.8630   -7.1029 H       1  UNL1        0.2104
     30 C          57.2886   96.4234   -7.1653 C.3     1  UNL1        0.0021
     31 C          58.5340   96.8517   -6.4471 C.3     1  UNL1        0.0270
     32 O          60.0968   87.7522   10.7317 O.3     1  UNL1       -0.4754
     33 C          60.1393   88.5059   12.0279 C.3     1  UNL1        0.2079
     34 C          61.3449   89.3264   12.3792 C.3     1  UNL1        0.0761
     35 C          61.5354   90.7848   12.0843 C.3     1  UNL1        0.1462
     36 O          62.8799   91.1923   12.6099 O.3     1  UNL1       -0.3523
     37 C          63.5204   89.9857   13.2297 C.3     1  UNL1        0.1362
     38 C          62.5717   88.8326   13.0872 C.3     1  UNL1        0.0398
     39 C          64.6523   90.9279   13.5143 C.ar    1  UNL1        0.0315
     40 C          65.2253   91.0156   14.8978 C.ar    1  UNL1        0.0026
     41 C          66.3574   91.9577   15.1824 C.ar    1  UNL1        0.0295
     42 C          66.9163   92.8121   14.0836 C.ar    1  UNL1        0.1424
     43 F          68.0483   93.7542   14.3682 F       1  UNL1       -0.2041
     44 C          66.3434   92.7244   12.7001 C.ar    1  UNL1        0.0590
     45 C          65.2114   91.7823   12.4154 C.ar    1  UNL1        0.1406
     46 F          64.6384   91.6945   11.0320 F       1  UNL1       -0.2044
     47 C          64.3975   88.9762   13.9090 C.3     1  UNL1        0.1605
     48 N          63.8812   88.2070   15.0888 N.ar    1  UNL1       -0.2273
     49 C          63.2141   88.7910   16.2986 C.ar    1  UNL1        0.1973
     50 N          62.8619   87.6638   17.2233 N.ar    1  UNL1       -0.2007
     51 C          63.3115   86.3830   16.5850 C.ar    1  UNL1        0.2210
     52 N          63.9414   86.7187   15.2657 N.ar    1  UNL1       -0.1451
@<TRIPOS>BOND
     1    30    31    1
     2    25    31    1
     3    25    26    1
     4    26    27    1
     5    26    28    1
     6    25    19    1
     7    19    20   ar
     8    20    21   ar
     9    21    22   ar
    10    22    13    1
    11    13    14   ar
    12    14    15   ar
    13    15    16   ar
    14    16     7    1
    15     7     8    1
    16     8     9    1
    17     9    10    1
    18    10     1    1
    19     1     2   ar
    20     2     3   ar
    21     3     4   ar
    22     4    32    1
    23    32    33    1
    24    34    33    1
    25    34    35    1
    26    35    36    1
    27    36    37    1
    28    37    47    1
    29    47    48    1
    30    48    49   ar
    31    49    50   ar
    32    50    51   ar
    33    51    52   ar
    34    37    39    1
    35    39    40   ar
    36    40    41   ar
    37    41    42   ar
    38    42    43    1
    39    42    44   ar
    40    44    45   ar
    41    45    46    1
    42    37    38    1
    43     4     5   ar
    44     5     6   ar
    45    10    11    1
    46    11    12    1
    47    16    17   ar
    48    17    18   ar
    49    22    23   ar
    50    23    24    2
    51    23    19   ar
    52    18    13   ar
    53    12     7    1
    54     6     1   ar
    55    38    34    1
    56    52    48   ar
    57    45    39   ar
    58    28    29    1
@<TRIPOS>MOLECULE
*****
 52 58 0 0 0
SMALL
GASTEIGER

@<TRIPOS>ATOM
      1 C          59.8859   89.7340    7.1061 C.ar    1  UNL1        0.0481
      2 C          59.9185   90.4443    8.4268 C.ar    1  UNL1        0.0176
      3 C          60.0051   89.6562    9.7003 C.ar    1  UNL1        0.0382
      4 C          60.0590   88.1580    9.6529 C.ar    1  UNL1        0.1386
      5 C          60.0264   87.4477    8.3320 C.ar    1  UNL1        0.0382
      6 C          59.9398   88.2357    7.0587 C.ar    1  UNL1        0.0176
      7 N          59.6262   92.0981    3.2859 N.pl3   1  UNL1       -0.3041
      8 C          58.3941   91.8659    4.1094 C.3     1  UNL1        0.1122
      9 C          58.4807   91.0779    5.3829 C.3     1  UNL1        0.1122
     10 N          59.7993   90.5220    5.8327 N.pl3   1  UNL1       -0.3041
     11 C          61.0313   90.7543    5.0091 C.3     1  UNL1        0.1122
     12 C          60.9447   91.5423    3.7358 C.3     1  UNL1        0.1122
     13 C          59.3666   94.4623   -0.5342 C.ar    1  UNL1        0.0699
     14 C          60.0665   95.0408    0.6597 C.ar    1  UNL1        0.0190
     15 C          60.1530   94.2527    1.9331 C.ar    1  UNL1        0.0160
     16 C          59.5396   92.8862    2.0125 C.ar    1  UNL1        0.0480
     17 C          58.8397   92.3077    0.8186 C.ar    1  UNL1        0.0160
     18 C          58.7532   93.0958   -0.4547 C.ar    1  UNL1        0.0190
     19 N          59.7235   96.0738   -4.0472 N.ar    1  UNL1       -0.2000
     20 N          58.5702   96.8524   -3.4870 N.ar    1  UNL1       -0.1442
     21 C          58.2962   96.3435   -2.1028 C.ar    1  UNL1        0.2073
     22 N          59.2801   95.2504   -1.8076 N.ar    1  UNL1       -0.2398
     23 C          60.1622   95.0837   -3.0093 C.ar    1  UNL1        0.3523
     24 O          61.2857   94.0997   -3.1486 O.2     1  UNL1       -0.2444
     25 C          60.3313   96.2537   -5.4067 C.3     1  UNL1        0.1365
     26 C          59.5691   95.8384   -6.6300 C.3     1  UNL1        0.1330
     27 C          59.5877   94.4061   -7.0750 C.3     1  UNL1        0.0338
     28 O          58.7882   96.8555   -7.4084 O.3     1  UNL1       -0.3825
     29 H          58.8817   97.7251   -6.9889 H       1  UNL1        0.2104
     30 C          62.8668   95.9748   -5.9002 C.3     1  UNL1        0.0021
     31 C          61.7014   96.8489   -5.5429 C.3     1  UNL1        0.0270
     32 O          60.1456   87.3699   10.9262 O.3     1  UNL1       -0.4754
     33 C          61.3934   87.4221   11.7570 C.3     1  UNL1        0.2079
     34 C          62.2793   88.6314   11.7048 C.3     1  UNL1        0.0761
     35 C          62.6899   89.3707   10.4659 C.3     1  UNL1        0.1462
     36 O          63.5745   90.5100   10.8776 O.3     1  UNL1       -0.3523
     37 C          63.7105   90.4749   12.3711 C.3     1  UNL1        0.1362
     38 C          62.9100   89.3139   12.8823 C.3     1  UNL1        0.0398
     39 C          64.5773   91.6812   12.1630 C.ar    1  UNL1        0.0315
     40 C          64.4880   92.4569   10.8823 C.ar    1  UNL1        0.0026
     41 C          65.3548   93.6634   10.6741 C.ar    1  UNL1        0.0295
     42 C          66.3108   94.0940   11.7467 C.ar    1  UNL1        0.1424
     43 F          67.1776   95.3004   11.5385 F       1  UNL1       -0.2041
     44 C          66.4001   93.3184   13.0275 C.ar    1  UNL1        0.0590
     45 C          65.5333   92.1119   13.2356 C.ar    1  UNL1        0.1406
     46 F          65.6226   91.3363   14.5164 F       1  UNL1       -0.2044
     47 C          64.0277   90.6920   13.8210 C.3     1  UNL1        0.1605
     48 N          63.7999   89.5892   14.8119 N.ar    1  UNL1       -0.2273
     49 C          63.2019   89.7418   16.1790 C.ar    1  UNL1        0.1973
     50 N          63.1624   88.3871   16.8217 N.ar    1  UNL1       -0.2007
     51 C          63.7361   87.3971   15.8517 C.ar    1  UNL1        0.2210
     52 N          64.1300   88.1400   14.6096 N.ar    1  UNL1       -0.1451
@<TRIPOS>BOND
     1    30    31    1
     2    25    31    1
     3    25    26    1
     4    26    27    1
     5    26    28    1
     6    25    19    1
     7    19    20   ar
     8    20    21   ar
     9    21    22   ar
    10    22    13    1
    11    13    14   ar
    12    14    15   ar
    13    15    16   ar
    14    16     7    1
    15     7     8    1
    16     8     9    1
    17     9    10    1
    18    10     1    1
    19     1     2   ar
    20     2     3   ar
    21     3     4   ar
    22     4    32    1
    23    32    33    1
    24    34    33    1
    25    34    35    1
    26    35    36    1
    27    36    37    1
    28    37    47    1
    29    47    48    1
    30    48    49   ar
    31    49    50   ar
    32    50    51   ar
    33    51    52   ar
    34    37    39    1
    35    39    40   ar
    36    40    41   ar
    37    41    42   ar
    38    42    43    1
    39    42    44   ar
    40    44    45   ar
    41    45    46    1
    42    37    38    1
    43     4     5   ar
    44     5     6   ar
    45    10    11    1
    46    11    12    1
    47    16    17   ar
    48    17    18   ar
    49    22    23   ar
    50    23    24    2
    51    23    19   ar
    52    18    13   ar
    53    12     7    1
    54     6     1   ar
    55    38    34    1
    56    52    48   ar
    57    45    39   ar
    58    28    29    1
@<TRIPOS>MOLECULE
*****
 52 58 0 0 0
SMALL
GASTEIGER

@<TRIPOS>ATOM
      1 C          59.9841   89.4429    7.3559 C.ar    1  UNL1        0.0481
      2 C          60.0098   90.1305    8.6887 C.ar    1  UNL1        0.0176
      3 C          60.1447   89.3240    9.9463 C.ar    1  UNL1        0.0382
      4 C          60.2540   87.8298    9.8709 C.ar    1  UNL1        0.1386
      5 C          60.2282   87.1423    8.5379 C.ar    1  UNL1        0.0382
      6 C          60.0933   87.9488    7.2805 C.ar    1  UNL1        0.0176
      7 N          59.5793   91.8626    3.5835 N.pl3   1  UNL1       -0.3041
      8 C          58.3763   91.6037    4.4411 C.3     1  UNL1        0.1122
      9 C          58.5111   90.7971    5.6986 C.3     1  UNL1        0.1122
     10 N          59.8491   90.2495    6.0984 N.pl3   1  UNL1       -0.3041
     11 C          61.0522   90.5084    5.2407 C.3     1  UNL1        0.1122
     12 C          60.9173   91.3150    3.9833 C.3     1  UNL1        0.1122
     13 C          59.1747   94.2824   -0.1889 C.ar    1  UNL1        0.0699
     14 C          60.0408   94.7782    0.9308 C.ar    1  UNL1        0.0190
     15 C          60.1757   93.9716    2.1883 C.ar    1  UNL1        0.0160
     16 C          59.4444   92.6692    2.3259 C.ar    1  UNL1        0.0480
     17 C          58.5783   92.1734    1.2062 C.ar    1  UNL1        0.0160
     18 C          58.4434   92.9800   -0.0513 C.ar    1  UNL1        0.0190
     19 N          58.3743   95.8091   -3.6666 N.ar    1  UNL1       -0.2000
     20 N          59.2902   96.8513   -3.0964 N.ar    1  UNL1       -0.1442
     21 C          59.7015   96.4062   -1.7243 C.ar    1  UNL1        0.2073
     22 N          59.0398   95.0890   -1.4465 N.ar    1  UNL1       -0.2398
     23 C          58.2196   94.7200   -2.6469 C.ar    1  UNL1        0.3523
     24 O          57.3902   93.4796   -2.8006 O.2     1  UNL1       -0.2444
     25 C          57.7269   95.8491   -5.0191 C.3     1  UNL1        0.1365
     26 C          58.4803   95.3732   -6.2257 C.3     1  UNL1        0.1330
     27 C          58.2398   96.0131   -7.5607 C.3     1  UNL1        0.0338
     28 O          59.4744   94.2571   -6.0971 O.3     1  UNL1       -0.3825
     29 H          59.5081   93.9588   -5.1747 H       1  UNL1        0.2104
     30 C          55.2070   95.4176   -5.4818 C.3     1  UNL1        0.0021
     31 C          56.3260   96.3650   -5.1650 C.3     1  UNL1        0.0270
     32 O          60.3889   87.0233   11.1283 O.3     1  UNL1       -0.4754
     33 C          61.5688   87.2326   12.0305 C.3     1  UNL1        0.2079
     34 C          62.4170   88.4610   11.8833 C.3     1  UNL1        0.0761
     35 C          62.7843   89.1291   10.5915 C.3     1  UNL1        0.1462
     36 O          63.6411   90.3179   10.9117 O.3     1  UNL1       -0.3523
     37 C          63.8034   90.3844   12.4014 C.3     1  UNL1        0.1362
     38 C          63.0469   89.2368   13.0019 C.3     1  UNL1        0.0398
     39 C          64.6300   91.5991   12.0992 C.ar    1  UNL1        0.0315
     40 C          65.7377   92.0022   13.0268 C.ar    1  UNL1        0.0026
     41 C          66.5644   93.2169   12.7246 C.ar    1  UNL1        0.0295
     42 C          66.2833   94.0284   11.4948 C.ar    1  UNL1        0.1424
     43 F          67.1099   95.2430   11.1926 F       1  UNL1       -0.2041
     44 C          65.1756   93.6253   10.5672 C.ar    1  UNL1        0.0590
     45 C          64.3489   92.4106   10.8694 C.ar    1  UNL1        0.1406
     46 F          63.2412   92.0075    9.9418 F       1  UNL1       -0.2044
     47 C          64.1386   90.7049   13.8280 C.3     1  UNL1        0.1605
     48 N          63.8165   89.7210   14.9133 N.ar    1  UNL1       -0.2273
     49 C          64.3052   88.3051   14.9933 C.ar    1  UNL1        0.1973
     50 N          63.7399   87.6892   16.2387 N.ar    1  UNL1       -0.2007
     51 C          62.9017   88.7245   16.9285 C.ar    1  UNL1        0.2210
     52 N          62.9491   89.9802   16.1094 N.ar    1  UNL1       -0.1451
@<TRIPOS>BOND
     1    30    31    1
     2    25    31    1
     3    25    26    1
     4    26    27    1
     5    26    28    1
     6    25    19    1
     7    19    20   ar
     8    20    21   ar
     9    21    22   ar
    10    22    13    1
    11    13    14   ar
    12    14    15   ar
    13    15    16   ar
    14    16     7    1
    15     7     8    1
    16     8     9    1
    17     9    10    1
    18    10     1    1
    19     1     2   ar
    20     2     3   ar
    21     3     4   ar
    22     4    32    1
    23    32    33    1
    24    34    33    1
    25    34    35    1
    26    35    36    1
    27    36    37    1
    28    37    47    1
    29    47    48    1
    30    48    49   ar
    31    49    50   ar
    32    50    51   ar
    33    51    52   ar
    34    37    39    1
    35    39    40   ar
    36    40    41   ar
    37    41    42   ar
    38    42    43    1
    39    42    44   ar
    40    44    45   ar
    41    45    46    1
    42    37    38    1
    43     4     5   ar
    44     5     6   ar
    45    10    11    1
    46    11    12    1
    47    16    17   ar
    48    17    18   ar
    49    22    23   ar
    50    23    24    2
    51    23    19   ar
    52    18    13   ar
    53    12     7    1
    54     6     1   ar
    55    38    34    1
    56    52    48   ar
    57    45    39   ar
    58    28    29    1
