@<TRIPOS>MOLECULE
*****
 40 45 0 0 0
SMALL
GASTEIGER

@<TRIPOS>ATOM
      1 C          64.3073   89.6559   14.3478 C.ar    1  UNL1        0.1669
      2 N          64.3586   88.1684   14.1617 N.ar    1  UNL1       -0.2221
      3 C          63.7817   87.5275   15.3891 C.ar    1  UNL1        0.1307
      4 C          63.5751   86.0911   15.7685 C.ar    1  UNL1        0.0777
      5 C          62.9606   85.7462   17.0927 C.ar    1  UNL1        0.0893
      6 CL         62.7539   84.3096   17.4722 Cl      1  UNL1       -0.0794
      7 C          62.5528   86.8375   18.0374 C.ar    1  UNL1        0.0863
      8 N          62.7594   88.2739   17.6579 N.ar    1  UNL1       -0.3354
      9 C          63.3739   88.6189   16.3338 C.ar    1  UNL1        0.1613
     10 N          63.6987   89.9344   15.6903 N.ar    1  UNL1       -0.2080
     11 H          62.4917   88.9903   18.2780 H       1  UNL1        0.1675
     12 C          65.9884   91.5190   13.6749 C.ar    1  UNL1        0.1428
     13 C          66.4624   92.5475   12.6913 C.ar    1  UNL1        0.0515
     14 C          65.7294   92.7414   11.3970 C.ar    1  UNL1        0.0510
     15 C          64.5224   91.9069   11.0864 C.ar    1  UNL1        0.0148
     16 C          64.0484   90.8784   12.0700 C.ar    1  UNL1        0.0074
     17 C          64.7814   90.6844   13.3643 C.ar    1  UNL1        0.0698
     18 N          66.2035   93.7700   10.4135 N.pl3   1  UNL1       -0.3046
     19 C          67.2903   93.4293    9.4374 C.3     1  UNL1        0.1081
     20 C          67.7644   94.4578    8.4538 C.3     1  UNL1        0.0938
     21 N          67.1517   95.8269    8.4463 N.3     1  UNL1       -0.2686
     22 C          67.6258   96.8554    7.4627 C.3     1  UNL1        0.0897
     23 C          66.0648   96.1676    9.4224 C.3     1  UNL1        0.0938
     24 C          65.5908   95.1391   10.4060 C.3     1  UNL1        0.1081
     25 C          66.7309   92.4177   15.9968 C.3     1  UNL1        0.2525
     26 O          66.7215   91.3250   14.9691 O.3     1  UNL1       -0.4713
     27 N          63.9829   84.9996   14.8238 N.pl3   1  UNL1       -0.3313
     28 H          64.6605   84.3398   15.0971 H       1  UNL1        0.1469
     29 C          63.3583   84.9135   13.4628 C.3     1  UNL1        0.0819
     30 C          62.9714   83.6525   12.7485 C.3     1  UNL1        0.0983
     31 C          62.3849   84.0328   11.4213 C.3     1  UNL1        0.0323
     32 C          62.0376   85.1925   10.5356 C.2     1  UNL1       -0.0304
     33 C          62.4245   86.4535   11.2499 C.2     1  UNL1       -0.0294
     34 C          63.0110   86.0731   12.5771 C.3     1  UNL1        0.0404
     35 C          62.9865   84.5771   12.6831 C.3     1  UNL1        0.0109
     36 C          63.1412   82.2562   13.2699 C.2     1  UNL1        0.2208
     37 N          62.6615   81.0893   12.4587 N.am    1  UNL1       -0.3288
     38 O          63.7906   82.0270   14.6025 O.2     1  UNL1       -0.2753
     39 H          62.2353   81.2397   11.5841 H       1  UNL1        0.1449
     40 H          62.7730   80.1729   12.8008 H       1  UNL1        0.1449
@<TRIPOS>BOND
     1    25    26    1
     2    26    12    1
     3    12    13   ar
     4    13    14   ar
     5    14    18    1
     6    18    19    1
     7    19    20    1
     8    20    21    1
     9    21    22    1
    10    21    23    1
    11    23    24    1
    12    14    15   ar
    13    15    16   ar
    14    16    17   ar
    15    17     1    1
    16     1     2   ar
    17     2     3   ar
    18     3     4   ar
    19     4    27    1
    20    29    27    1
    21    29    30    1
    22    30    36    1
    23    36    37   am
    24    36    38    2
    25    30    31    1
    26    31    32    1
    27    32    33    2
    28    34    33    1
    29    34    35    1
    30     4     5   ar
    31     5     6    1
    32     5     7   ar
    33     7     8   ar
    34     8     9   ar
    35     9    10   ar
    36    17    12   ar
    37    10     1   ar
    38    24    18    1
    39     9     3    1
    40    34    29    1
    41    35    31    1
    42    27    28    1
    43    37    39    1
    44    37    40    1
    45     8    11    1
@<TRIPOS>MOLECULE
*****
 40 45 0 0 0
SMALL
GASTEIGER

@<TRIPOS>ATOM
      1 C          64.1471   89.3144   14.1195 C.ar    1  UNL1        0.1669
      2 N          64.4049   87.8441   13.9714 N.ar    1  UNL1       -0.2221
      3 C          63.7418   87.1396   15.1176 C.ar    1  UNL1        0.1307
      4 C          63.6596   85.6894   15.4921 C.ar    1  UNL1        0.0777
      5 C          62.9098   85.2741   16.7231 C.ar    1  UNL1        0.0893
      6 CL         62.8276   83.8238   17.0977 Cl      1  UNL1       -0.0794
      7 C          62.2423   86.3088   17.5796 C.ar    1  UNL1        0.0863
      8 N          62.3244   87.7589   17.2051 N.ar    1  UNL1       -0.3354
      9 C          63.0742   88.1743   15.9741 C.ar    1  UNL1        0.1613
     10 N          63.3247   89.5185   15.3572 N.ar    1  UNL1       -0.2080
     11 H          61.8863   88.4381   17.7672 H       1  UNL1        0.1675
     12 C          65.7751   91.2697   13.5942 C.ar    1  UNL1        0.1428
     13 C          66.2554   92.3468   12.6671 C.ar    1  UNL1        0.0515
     14 C          65.5880   92.5457   11.3386 C.ar    1  UNL1        0.0510
     15 C          64.4402   91.6674   10.9370 C.ar    1  UNL1        0.0148
     16 C          63.9600   90.5903   11.8640 C.ar    1  UNL1        0.0074
     17 C          64.6274   90.3915   13.1926 C.ar    1  UNL1        0.0698
     18 N          66.0683   93.6228   10.4117 N.pl3   1  UNL1       -0.3046
     19 C          67.0996   93.3095    9.3686 C.3     1  UNL1        0.1081
     20 C          67.5799   94.3866    8.4416 C.3     1  UNL1        0.0938
     21 N          67.0289   95.7768    8.5578 N.3     1  UNL1       -0.2686
     22 C          67.5092   96.8539    7.6309 C.3     1  UNL1        0.0897
     23 C          65.9976   96.0901    9.6011 C.3     1  UNL1        0.0938
     24 C          65.5172   95.0130   10.5280 C.3     1  UNL1        0.1081
     25 C          67.1628   92.2118   15.5783 C.3     1  UNL1        0.2525
     26 O          66.4426   91.0710   14.9226 O.3     1  UNL1       -0.4713
     27 N          64.3272   84.6545   14.6356 N.pl3   1  UNL1       -0.3313
     28 H          65.3035   84.6745   14.5103 H       1  UNL1        0.1469
     29 C          63.5073   83.5893   13.9701 C.3     1  UNL1        0.0819
     30 C          62.8586   83.6898   12.6214 C.3     1  UNL1        0.0983
     31 C          62.1424   82.3991   12.3542 C.3     1  UNL1        0.0323
     32 C          61.8272   81.0464   12.9205 C.2     1  UNL1       -0.0304
     33 C          62.4759   80.9459   14.2692 C.2     1  UNL1       -0.0294
     34 C          63.1920   82.2366   14.5365 C.3     1  UNL1        0.0404
     35 C          62.9860   83.1347   13.3529 C.3     1  UNL1        0.0109
     36 C          62.9159   84.8732   11.7014 C.2     1  UNL1        0.2208
     37 N          62.4322   86.2129   12.1716 N.am    1  UNL1       -0.3288
     38 O          63.4570   84.7168   10.3111 O.2     1  UNL1       -0.2753
     39 H          62.0771   86.3155   13.0841 H       1  UNL1        0.1449
     40 H          62.4698   86.9895   11.5678 H       1  UNL1        0.1449
@<TRIPOS>BOND
     1    25    26    1
     2    26    12    1
     3    12    13   ar
     4    13    14   ar
     5    14    18    1
     6    18    19    1
     7    19    20    1
     8    20    21    1
     9    21    22    1
    10    21    23    1
    11    23    24    1
    12    14    15   ar
    13    15    16   ar
    14    16    17   ar
    15    17     1    1
    16     1     2   ar
    17     2     3   ar
    18     3     4   ar
    19     4    27    1
    20    29    27    1
    21    29    30    1
    22    30    36    1
    23    36    37   am
    24    36    38    2
    25    30    31    1
    26    31    32    1
    27    32    33    2
    28    34    33    1
    29    34    35    1
    30     4     5   ar
    31     5     6    1
    32     5     7   ar
    33     7     8   ar
    34     8     9   ar
    35     9    10   ar
    36    17    12   ar
    37    10     1   ar
    38    24    18    1
    39     9     3    1
    40    34    29    1
    41    35    31    1
    42    27    28    1
    43    37    39    1
    44    37    40    1
    45     8    11    1
@<TRIPOS>MOLECULE
*****
 40 45 0 0 0
SMALL
GASTEIGER

@<TRIPOS>ATOM
      1 C          64.1463   89.2526   14.0957 C.ar    1  UNL1        0.1669
      2 N          64.4211   87.7854   13.9483 N.ar    1  UNL1       -0.2221
      3 C          63.7297   87.0694   15.0705 C.ar    1  UNL1        0.1307
      4 C          63.6487   85.6167   15.4353 C.ar    1  UNL1        0.0777
      5 C          62.8656   85.1887   16.6410 C.ar    1  UNL1        0.0893
      6 CL         62.7846   83.7359   17.0058 Cl      1  UNL1       -0.0794
      7 C          62.1636   86.2134   17.4818 C.ar    1  UNL1        0.0863
      8 N          62.2445   87.6661   17.1171 N.ar    1  UNL1       -0.3354
      9 C          63.0276   88.0941   15.9114 C.ar    1  UNL1        0.1613
     10 N          63.2851   89.4434   15.3089 N.ar    1  UNL1       -0.2080
     11 H          61.7837   88.3386   17.6690 H       1  UNL1        0.1675
     12 C          63.9275   90.6322   11.9050 C.ar    1  UNL1        0.1428
     13 C          64.4264   91.7181   10.9984 C.ar    1  UNL1        0.0515
     14 C          65.6430   92.5103   11.3757 C.ar    1  UNL1        0.0510
     15 C          66.3607   92.2166   12.6597 C.ar    1  UNL1        0.0148
     16 C          65.8618   91.1307   13.5663 C.ar    1  UNL1        0.0074
     17 C          64.6452   90.3385   13.1890 C.ar    1  UNL1        0.0698
     18 N          66.1418   93.5961   10.4690 N.pl3   1  UNL1       -0.3046
     19 C          65.7367   95.0200   10.7107 C.3     1  UNL1        0.1081
     20 C          66.2355   96.1058    9.8040 C.3     1  UNL1        0.0938
     21 N          67.1395   95.7679    8.6557 N.3     1  UNL1       -0.2686
     22 C          67.6383   96.8537    7.7490 C.3     1  UNL1        0.0897
     23 C          67.5446   94.3439    8.4140 C.3     1  UNL1        0.0938
     24 C          67.0458   93.2581    9.3207 C.3     1  UNL1        0.1081
     25 C          61.7526   90.3779   10.5067 C.3     1  UNL1        0.2525
     26 O          62.7109   89.8401   11.5277 O.3     1  UNL1       -0.4713
     27 N          64.3508   84.5919   14.5944 N.pl3   1  UNL1       -0.3313
     28 H          65.3223   84.6567   14.4485 H       1  UNL1        0.1469
     29 C          63.5727   83.4686   13.9759 C.3     1  UNL1        0.0819
     30 C          62.7492   83.5506   12.7249 C.3     1  UNL1        0.0983
     31 C          62.1490   82.1987   12.4755 C.3     1  UNL1        0.0323
     32 C          62.0579   80.7961   12.9994 C.2     1  UNL1       -0.0304
     33 C          62.8814   80.7141   14.2504 C.2     1  UNL1       -0.0294
     34 C          63.4815   82.0660   14.4997 C.3     1  UNL1        0.0404
     35 C          63.0290   82.9836   13.4028 C.3     1  UNL1        0.0109
     36 C          62.5592   84.7704   11.8728 C.2     1  UNL1        0.2208
     37 N          63.0945   84.7975   10.4718 N.am    1  UNL1       -0.3288
     38 O          61.8338   85.9631   12.4216 O.2     1  UNL1       -0.2753
     39 H          63.5706   84.0147   10.1116 H       1  UNL1        0.1449
     40 H          62.9698   85.5981    9.9126 H       1  UNL1        0.1449
@<TRIPOS>BOND
     1    25    26    1
     2    26    12    1
     3    12    13   ar
     4    13    14   ar
     5    14    18    1
     6    18    19    1
     7    19    20    1
     8    20    21    1
     9    21    22    1
    10    21    23    1
    11    23    24    1
    12    14    15   ar
    13    15    16   ar
    14    16    17   ar
    15    17     1    1
    16     1     2   ar
    17     2     3   ar
    18     3     4   ar
    19     4    27    1
    20    29    27    1
    21    29    30    1
    22    30    36    1
    23    36    37   am
    24    36    38    2
    25    30    31    1
    26    31    32    1
    27    32    33    2
    28    34    33    1
    29    34    35    1
    30     4     5   ar
    31     5     6    1
    32     5     7   ar
    33     7     8   ar
    34     8     9   ar
    35     9    10   ar
    36    17    12   ar
    37    10     1   ar
    38    24    18    1
    39     9     3    1
    40    34    29    1
    41    35    31    1
    42    27    28    1
    43    37    39    1
    44    37    40    1
    45     8    11    1
@<TRIPOS>MOLECULE
*****
 40 45 0 0 0
SMALL
GASTEIGER

@<TRIPOS>ATOM
      1 C          64.8042   89.5174   13.9663 C.ar    1  UNL1        0.1669
      2 N          64.8467   90.5173   12.8490 N.ar    1  UNL1       -0.2221
      3 C          65.3967   91.8010   13.3965 C.ar    1  UNL1        0.1307
      4 C          65.6652   93.1313   12.7576 C.ar    1  UNL1        0.0777
      5 C          66.2311   94.2550   13.5744 C.ar    1  UNL1        0.0893
      6 CL         66.4996   95.5854   12.9354 Cl      1  UNL1       -0.0794
      7 C          66.5285   94.0484   15.0299 C.ar    1  UNL1        0.0863
      8 N          66.2601   92.7181   15.6688 N.ar    1  UNL1       -0.3354
      9 C          65.6942   91.5944   14.8521 C.ar    1  UNL1        0.1613
     10 N          65.3280   90.1830   15.2043 N.ar    1  UNL1       -0.2080
     11 H          66.4553   92.5825   16.6242 H       1  UNL1        0.1675
     12 C          63.3925   87.7030   12.7559 C.ar    1  UNL1        0.1428
     13 C          62.9108   86.2861   12.6534 C.ar    1  UNL1        0.0515
     14 C          63.3591   85.2668   13.6584 C.ar    1  UNL1        0.0510
     15 C          64.2891   85.6644   14.7661 C.ar    1  UNL1        0.0148
     16 C          64.7708   87.0813   14.8687 C.ar    1  UNL1        0.0074
     17 C          64.3225   88.1006   13.8636 C.ar    1  UNL1        0.0698
     18 N          62.8774   83.8500   13.5558 N.pl3   1  UNL1       -0.3046
     19 C          62.2605   83.1795   14.7473 C.3     1  UNL1        0.1081
     20 C          61.7788   81.7626   14.6447 C.3     1  UNL1        0.0938
     21 N          61.9140   81.0164   13.3506 N.3     1  UNL1       -0.2686
     22 C          61.4323   79.5995   13.2480 C.3     1  UNL1        0.0897
     23 C          62.5309   81.6869   12.1590 C.3     1  UNL1        0.0938
     24 C          63.0126   83.1038   12.2616 C.3     1  UNL1        0.1081
     25 C          62.3439   88.2788   10.4497 C.3     1  UNL1        0.2525
     26 O          62.9442   88.7222   11.7509 O.3     1  UNL1       -0.4713
     27 N          65.3677   93.3379   11.3019 N.pl3   1  UNL1       -0.3313
     28 H          64.4427   93.5005   11.0067 H       1  UNL1        0.1469
     29 C          66.4797   93.2970   10.2960 C.3     1  UNL1        0.0819
     30 C          66.8854   94.4168    9.3843 C.3     1  UNL1        0.0983
     31 C          68.0376   93.9410    8.5500 C.3     1  UNL1        0.0323
     32 C          68.9391   92.7731    8.2793 C.2     1  UNL1       -0.0304
     33 C          68.5334   91.6533    9.1910 C.2     1  UNL1       -0.0294
     34 C          67.3812   92.1291   10.0253 C.3     1  UNL1        0.0404
     35 C          67.0747   93.5430    9.6292 C.3     1  UNL1        0.0109
     36 C          66.2504   95.7742    9.3183 C.2     1  UNL1        0.2208
     37 N          66.8768   96.8558    8.4891 N.am    1  UNL1       -0.3288
     38 O          64.9889   96.0500   10.0816 O.2     1  UNL1       -0.2753
     39 H          67.7048   96.6748    7.9881 H       1  UNL1        0.1449
     40 H          66.4601   97.7467    8.4458 H       1  UNL1        0.1449
@<TRIPOS>BOND
     1    25    26    1
     2    26    12    1
     3    12    13   ar
     4    13    14   ar
     5    14    18    1
     6    18    19    1
     7    19    20    1
     8    20    21    1
     9    21    22    1
    10    21    23    1
    11    23    24    1
    12    14    15   ar
    13    15    16   ar
    14    16    17   ar
    15    17     1    1
    16     1     2   ar
    17     2     3   ar
    18     3     4   ar
    19     4    27    1
    20    29    27    1
    21    29    30    1
    22    30    36    1
    23    36    37   am
    24    36    38    2
    25    30    31    1
    26    31    32    1
    27    32    33    2
    28    34    33    1
    29    34    35    1
    30     4     5   ar
    31     5     6    1
    32     5     7   ar
    33     7     8   ar
    34     8     9   ar
    35     9    10   ar
    36    17    12   ar
    37    10     1   ar
    38    24    18    1
    39     9     3    1
    40    34    29    1
    41    35    31    1
    42    27    28    1
    43    37    39    1
    44    37    40    1
    45     8    11    1
@<TRIPOS>MOLECULE
*****
 40 45 0 0 0
SMALL
GASTEIGER

@<TRIPOS>ATOM
      1 C          63.9733   87.4625   14.4038 C.ar    1  UNL1        0.1669
      2 N          64.8697   88.5202   13.8312 N.ar    1  UNL1       -0.2221
      3 C          64.7666   89.7367   14.7028 C.ar    1  UNL1        0.1307
      4 C          65.4229   91.0834   14.6281 C.ar    1  UNL1        0.0777
      5 C          65.1191   92.1242   15.6647 C.ar    1  UNL1        0.0893
      6 CL         65.7755   93.4710   15.5900 Cl      1  UNL1       -0.0794
      7 C          64.1592   91.8184   16.7758 C.ar    1  UNL1        0.0863
      8 N          63.5028   90.4717   16.8505 N.ar    1  UNL1       -0.3354
      9 C          63.8065   89.4308   15.8140 C.ar    1  UNL1        0.1613
     10 N          63.3163   88.0253   15.6292 N.ar    1  UNL1       -0.2080
     11 H          62.8727   90.2709   17.5798 H       1  UNL1        0.1675
     12 C          62.9637   85.8906   12.5984 C.ar    1  UNL1        0.1428
     13 C          62.7602   84.5120   12.0432 C.ar    1  UNL1        0.0515
     14 C          63.3626   83.3270   12.7380 C.ar    1  UNL1        0.0510
     15 C          64.1687   83.5205   13.9881 C.ar    1  UNL1        0.0148
     16 C          64.3722   84.8991   14.5433 C.ar    1  UNL1        0.0074
     17 C          63.7698   86.0840   13.8485 C.ar    1  UNL1        0.0698
     18 N          63.1591   81.9485   12.1827 N.pl3   1  UNL1       -0.3046
     19 C          62.7430   80.8286   13.0896 C.3     1  UNL1        0.1081
     20 C          62.5394   79.4501   12.5343 C.3     1  UNL1        0.0938
     21 N          62.7519   79.1916   11.0722 N.3     1  UNL1       -0.2686
     22 C          62.5483   77.8131   10.5169 C.3     1  UNL1        0.0897
     23 C          63.1680   80.3116   10.1652 C.3     1  UNL1        0.0938
     24 C          63.3715   81.6901   10.7205 C.3     1  UNL1        0.1081
     25 C          61.3249   86.8732   10.8381 C.3     1  UNL1        0.2525
     26 O          62.3612   87.0755   11.9035 O.3     1  UNL1       -0.4713
     27 N          66.3830   91.3893   13.5169 N.pl3   1  UNL1       -0.3313
     28 H          67.2620   90.9468   13.4900 H       1  UNL1        0.1469
     29 C          66.0037   92.3695   12.4466 C.3     1  UNL1        0.0819
     30 C          64.8090   92.2718   11.5449 C.3     1  UNL1        0.0983
     31 C          64.8194   93.4613   10.6311 C.3     1  UNL1        0.0323
     32 C          65.5682   94.7112   10.2747 C.2     1  UNL1       -0.0304
     33 C          66.7629   94.8089   11.1764 C.2     1  UNL1       -0.0294
     34 C          66.7525   93.6193   12.0902 C.3     1  UNL1        0.0404
     35 C          65.5514   92.7865   11.7532 C.3     1  UNL1        0.0109
     36 C          63.7838   91.1768   11.5551 C.2     1  UNL1        0.2208
     37 N          62.8627   91.0227   12.7289 N.am    1  UNL1       -0.3288
     38 O          63.6797   90.2359   10.3915 O.2     1  UNL1       -0.2753
     39 H          62.9310   91.6402   13.4926 H       1  UNL1        0.1449
     40 H          62.1898   90.3040   12.7356 H       1  UNL1        0.1449
@<TRIPOS>BOND
     1    25    26    1
     2    26    12    1
     3    12    13   ar
     4    13    14   ar
     5    14    18    1
     6    18    19    1
     7    19    20    1
     8    20    21    1
     9    21    22    1
    10    21    23    1
    11    23    24    1
    12    14    15   ar
    13    15    16   ar
    14    16    17   ar
    15    17     1    1
    16     1     2   ar
    17     2     3   ar
    18     3     4   ar
    19     4    27    1
    20    29    27    1
    21    29    30    1
    22    30    36    1
    23    36    37   am
    24    36    38    2
    25    30    31    1
    26    31    32    1
    27    32    33    2
    28    34    33    1
    29    34    35    1
    30     4     5   ar
    31     5     6    1
    32     5     7   ar
    33     7     8   ar
    34     8     9   ar
    35     9    10   ar
    36    17    12   ar
    37    10     1   ar
    38    24    18    1
    39     9     3    1
    40    34    29    1
    41    35    31    1
    42    27    28    1
    43    37    39    1
    44    37    40    1
    45     8    11    1
@<TRIPOS>MOLECULE
*****
 40 45 0 0 0
SMALL
GASTEIGER

@<TRIPOS>ATOM
      1 C          63.6885   86.9523   14.6016 C.ar    1  UNL1        0.1669
      2 N          64.3563   88.1389   13.9725 N.ar    1  UNL1       -0.2221
      3 C          64.2773   89.2823   14.9402 C.ar    1  UNL1        0.1307
      4 C          64.7654   90.6985   14.8625 C.ar    1  UNL1        0.0777
      5 C          64.5368   91.6347   16.0121 C.ar    1  UNL1        0.0893
      6 CL         65.0249   93.0510   15.9343 Cl      1  UNL1       -0.0794
      7 C          63.8202   91.1547   17.2392 C.ar    1  UNL1        0.0863
      8 N          63.3322   89.7385   17.3169 N.ar    1  UNL1       -0.3354
      9 C          63.5607   88.8023   16.1675 C.ar    1  UNL1        0.1613
     10 N          63.1968   87.3622   15.9582 N.ar    1  UNL1       -0.2080
     11 H          62.8618   89.4234   18.1224 H       1  UNL1        0.1675
     12 C          62.8683   85.4474   12.6490 C.ar    1  UNL1        0.1428
     13 C          62.7185   84.0891   12.0303 C.ar    1  UNL1        0.0515
     14 C          63.2390   82.8776   12.7454 C.ar    1  UNL1        0.0510
     15 C          63.9093   83.0243   14.0793 C.ar    1  UNL1        0.0148
     16 C          64.0591   84.3826   14.6980 C.ar    1  UNL1        0.0074
     17 C          63.5386   85.5941   13.9829 C.ar    1  UNL1        0.0698
     18 N          63.0891   81.5194   12.1267 N.pl3   1  UNL1       -0.3046
     19 C          62.7356   80.3400   12.9833 C.3     1  UNL1        0.1081
     20 C          62.5857   78.9818   12.3645 C.3     1  UNL1        0.0938
     21 N          62.7894   78.8030   10.8893 N.3     1  UNL1       -0.2686
     22 C          62.6396   77.4448   10.2705 C.3     1  UNL1        0.0897
     23 C          63.1430   79.9826   10.0326 C.3     1  UNL1        0.0938
     24 C          63.2928   81.3408   10.6514 C.3     1  UNL1        0.1081
     25 C          61.2995   86.5099   10.8715 C.3     1  UNL1        0.2525
     26 O          62.3479   86.6588   11.9339 O.3     1  UNL1       -0.4713
     27 N          65.4821   91.1786   13.6353 N.pl3   1  UNL1       -0.3313
     28 H          66.4442   91.3832   13.6755 H       1  UNL1        0.1469
     29 C          64.7327   91.3471   12.3469 C.3     1  UNL1        0.0819
     30 C          65.0442   92.3433   11.2696 C.3     1  UNL1        0.0983
     31 C          64.0443   92.1609   10.1664 C.3     1  UNL1        0.0323
     32 C          62.8520   91.3627    9.7290 C.2     1  UNL1       -0.0304
     33 C          62.5406   90.3665   10.8063 C.2     1  UNL1       -0.0294
     34 C          63.5404   90.5489   11.9095 C.3     1  UNL1        0.0404
     35 C          64.4698   91.6579   11.5141 C.3     1  UNL1        0.0109
     36 C          66.1596   93.3460   11.2917 C.2     1  UNL1        0.2208
     37 N          65.8657   94.7887   11.5784 N.am    1  UNL1       -0.3288
     38 O          67.5690   92.9060   11.0270 O.2     1  UNL1       -0.2753
     39 H          64.9407   95.0775   11.7522 H       1  UNL1        0.1449
     40 H          66.5978   95.4468   11.5929 H       1  UNL1        0.1449
@<TRIPOS>BOND
     1    25    26    1
     2    26    12    1
     3    12    13   ar
     4    13    14   ar
     5    14    18    1
     6    18    19    1
     7    19    20    1
     8    20    21    1
     9    21    22    1
    10    21    23    1
    11    23    24    1
    12    14    15   ar
    13    15    16   ar
    14    16    17   ar
    15    17     1    1
    16     1     2   ar
    17     2     3   ar
    18     3     4   ar
    19     4    27    1
    20    29    27    1
    21    29    30    1
    22    30    36    1
    23    36    37   am
    24    36    38    2
    25    30    31    1
    26    31    32    1
    27    32    33    2
    28    34    33    1
    29    34    35    1
    30     4     5   ar
    31     5     6    1
    32     5     7   ar
    33     7     8   ar
    34     8     9   ar
    35     9    10   ar
    36    17    12   ar
    37    10     1   ar
    38    24    18    1
    39     9     3    1
    40    34    29    1
    41    35    31    1
    42    27    28    1
    43    37    39    1
    44    37    40    1
    45     8    11    1
