@<TRIPOS>MOLECULE
*****
 34 37 0 0 0
SMALL
GASTEIGER

@<TRIPOS>ATOM
      1 C          63.4256   87.8280   12.7116 C.3     1  UNL1        0.0328
      2 C          62.5365   87.4172   11.5754 C.ar    1  UNL1        0.0002
      3 C          62.2293   85.9664   11.3501 C.ar    1  UNL1        0.0774
      4 N          61.3403   85.5556   10.2139 N.ar    1  UNL1       -0.2457
      5 C          60.7583   86.5957    9.3030 C.ar    1  UNL1        0.0814
      6 C          59.8693   86.1850    8.1669 C.ar    1  UNL1        0.0196
      7 C          59.2874   87.2250    7.2561 C.ar    1  UNL1        0.0082
      8 C          59.5946   88.6759    7.4814 C.ar    1  UNL1        0.0347
      9 BR         59.0127   89.7159    6.5705 Br      1  UNL1       -0.0490
     10 C          60.4836   89.0866    8.6175 C.ar    1  UNL1        0.0083
     11 C          61.0655   88.0466    9.5283 C.ar    1  UNL1        0.0222
     12 C          61.9546   88.4573   10.6645 C.ar    1  UNL1        0.0523
     13 C          62.8112   84.9263   12.2610 C.ar    1  UNL1        0.0173
     14 C          62.3960   84.8738   13.7014 C.ar    1  UNL1        0.0015
     15 C          62.9779   83.8338   14.6122 C.ar    1  UNL1        0.0000
     16 C          63.9751   82.8462   14.0826 C.ar    1  UNL1        0.0000
     17 C          64.3903   82.8987   12.6422 C.ar    1  UNL1        0.0000
     18 C          63.8083   83.9388   11.7314 C.ar    1  UNL1        0.0015
     19 C          62.2618   89.9081   10.8899 C.2     1  UNL1        0.2457
     20 O          61.2929   90.7719   11.6415 O.2     1  UNL1       -0.2702
     21 N          63.5379   90.4951   10.3635 N.am    1  UNL1       -0.3002
     22 H          64.1739   89.9281    9.8702 H       1  UNL1        0.1498
     23 C          63.8451   91.9459   10.5888 C.3     1  UNL1        0.0996
     24 C          65.0982   92.3439   11.3107 C.3     1  UNL1        0.0791
     25 C          66.2835   92.8411   10.5374 C.ar    1  UNL1       -0.0050
     26 C          67.3701   91.8883   10.1355 C.ar    1  UNL1       -0.0030
     27 C          68.5554   92.3855    9.3623 C.ar    1  UNL1       -0.0003
     28 C          68.6541   93.8354    8.9909 C.ar    1  UNL1        0.0008
     29 C          67.5675   94.7882    9.3928 C.ar    1  UNL1        0.0111
     30 C          66.3822   94.2910   10.1661 C.ar    1  UNL1        0.0541
     31 CL         65.2956   95.2438   10.5680 Cl      1  UNL1       -0.0826
     32 C          65.1661   92.2447   12.8058 C.2     1  UNL1        0.0557
     33 O          64.0837   91.5308   13.5601 O.co2   1  UNL1       -0.5488
     34 O          66.3163   92.8595   13.5468 O.co2   1  UNL1       -0.5488
@<TRIPOS>UNITY_ATOM_ATTR
33 1
charge -1
@<TRIPOS>BOND
     1     1     2    1
     2     2     3   ar
     3     3    13    1
     4    13    14   ar
     5    14    15   ar
     6    15    16   ar
     7    16    17   ar
     8    17    18   ar
     9     3     4   ar
    10     4     5   ar
    11     5     6   ar
    12     6     7   ar
    13     7     8   ar
    14     8     9    1
    15     8    10   ar
    16    10    11   ar
    17    11    12   ar
    18    12    19    1
    19    19    20    2
    20    19    21   am
    21    21    23    1
    22    23    24    1
    23    24    32    1
    24    32    33   ar
    25    32    34   ar
    26    24    25    1
    27    25    26   ar
    28    26    27   ar
    29    27    28   ar
    30    28    29   ar
    31    29    30   ar
    32    30    31    1
    33    12     2   ar
    34    30    25   ar
    35    18    13   ar
    36    11     5   ar
    37    21    22    1
@<TRIPOS>MOLECULE
*****
 34 37 0 0 0
SMALL
GASTEIGER

@<TRIPOS>ATOM
      1 C          63.4416   87.8408   12.7011 C.3     1  UNL1        0.0328
      2 C          62.5446   87.4345   11.5695 C.ar    1  UNL1        0.0002
      3 C          62.2231   85.9858   11.3504 C.ar    1  UNL1        0.0774
      4 N          61.3262   85.5795   10.2189 N.ar    1  UNL1       -0.2457
      5 C          60.7507   86.6218    9.3065 C.ar    1  UNL1        0.0814
      6 C          59.8537   86.2154    8.1750 C.ar    1  UNL1        0.0196
      7 C          59.2783   87.2577    7.2626 C.ar    1  UNL1        0.0082
      8 C          59.5997   88.7064    7.4818 C.ar    1  UNL1        0.0347
      9 BR         59.0242   89.7487    6.5694 Br      1  UNL1       -0.0490
     10 C          60.4967   89.1128    8.6133 C.ar    1  UNL1        0.0083
     11 C          61.0721   88.0705    9.5256 C.ar    1  UNL1        0.0222
     12 C          61.9691   88.4768   10.6572 C.ar    1  UNL1        0.0523
     13 C          62.7987   84.9435   12.2628 C.ar    1  UNL1        0.0173
     14 C          62.3779   84.8913   13.7016 C.ar    1  UNL1        0.0015
     15 C          62.9535   83.8490   14.6139 C.ar    1  UNL1        0.0000
     16 C          63.9497   82.8589   14.0874 C.ar    1  UNL1        0.0000
     17 C          64.3704   82.9111   12.6486 C.ar    1  UNL1        0.0000
     18 C          63.7949   83.9534   11.7363 C.ar    1  UNL1        0.0015
     19 C          62.2906   89.9254   10.8764 C.2     1  UNL1        0.2457
     20 O          61.2953   90.8205   11.5533 O.2     1  UNL1       -0.2702
     21 N          63.6075   90.4791   10.4187 N.am    1  UNL1       -0.3002
     22 H          64.2607   89.8916    9.9744 H       1  UNL1        0.1498
     23 C          63.9289   91.9277   10.6378 C.3     1  UNL1        0.0996
     24 C          65.2737   92.3253   11.1701 C.3     1  UNL1        0.0791
     25 C          65.5431   92.2696   12.6447 C.ar    1  UNL1       -0.0050
     26 C          65.2169   91.0279   13.4203 C.ar    1  UNL1       -0.0030
     27 C          65.4862   90.9722   14.8949 C.ar    1  UNL1       -0.0003
     28 C          66.0818   92.1582   15.5938 C.ar    1  UNL1        0.0008
     29 C          66.4081   93.3999   14.8182 C.ar    1  UNL1        0.0111
     30 C          66.1387   93.4556   13.3436 C.ar    1  UNL1        0.0541
     31 CL         66.4650   94.6975   12.5680 Cl      1  UNL1       -0.0826
     32 C          66.3491   92.7787   10.2279 C.2     1  UNL1        0.0557
     33 O          66.1722   94.0430    9.4402 O.co2   1  UNL1       -0.5488
     34 O          67.6015   91.9678   10.0732 O.co2   1  UNL1       -0.5488
@<TRIPOS>UNITY_ATOM_ATTR
33 1
charge -1
@<TRIPOS>BOND
     1     1     2    1
     2     2     3   ar
     3     3    13    1
     4    13    14   ar
     5    14    15   ar
     6    15    16   ar
     7    16    17   ar
     8    17    18   ar
     9     3     4   ar
    10     4     5   ar
    11     5     6   ar
    12     6     7   ar
    13     7     8   ar
    14     8     9    1
    15     8    10   ar
    16    10    11   ar
    17    11    12   ar
    18    12    19    1
    19    19    20    2
    20    19    21   am
    21    21    23    1
    22    23    24    1
    23    24    32    1
    24    32    33   ar
    25    32    34   ar
    26    24    25    1
    27    25    26   ar
    28    26    27   ar
    29    27    28   ar
    30    28    29   ar
    31    29    30   ar
    32    30    31    1
    33    12     2   ar
    34    30    25   ar
    35    18    13   ar
    36    11     5   ar
    37    21    22    1
@<TRIPOS>MOLECULE
*****
 34 37 0 0 0
SMALL
GASTEIGER

@<TRIPOS>ATOM
      1 C          61.5299   87.4765   11.9444 C.3     1  UNL1        0.0328
      2 C          62.2529   88.7257   11.5357 C.ar    1  UNL1        0.0002
      3 C          62.0655   89.2833   10.1559 C.ar    1  UNL1        0.0774
      4 N          62.7884   90.5324    9.7471 N.ar    1  UNL1       -0.2457
      5 C          63.6988   91.2239   10.7182 C.ar    1  UNL1        0.0814
      6 C          64.4218   92.4730   10.3095 C.ar    1  UNL1        0.0196
      7 C          65.3321   93.1645   11.2805 C.ar    1  UNL1        0.0082
      8 C          65.5196   92.6069   12.6604 C.ar    1  UNL1        0.0347
      9 BR         66.4300   93.2984   13.6315 Br      1  UNL1       -0.0490
     10 C          64.7967   91.3578   13.0691 C.ar    1  UNL1        0.0083
     11 C          63.8863   90.6663   12.0980 C.ar    1  UNL1        0.0222
     12 C          63.1633   89.4171   12.5068 C.ar    1  UNL1        0.0523
     13 C          61.1550   88.5917    9.1848 C.ar    1  UNL1        0.0173
     14 C          61.2949   87.1177    8.9449 C.ar    1  UNL1        0.0015
     15 C          60.3845   86.4262    7.9738 C.ar    1  UNL1        0.0000
     16 C          59.3342   87.2088    7.2427 C.ar    1  UNL1        0.0000
     17 C          59.1944   88.6828    7.4826 C.ar    1  UNL1        0.0000
     18 C          60.1048   89.3743    8.4536 C.ar    1  UNL1        0.0015
     19 C          63.3507   88.8595   13.8866 C.2     1  UNL1        0.2457
     20 O          62.7611   89.5696   15.0690 O.2     1  UNL1       -0.2702
     21 N          64.1279   87.5918   14.0840 N.am    1  UNL1       -0.3002
     22 H          64.5149   87.1257   13.3080 H       1  UNL1        0.1498
     23 C          64.3153   87.0342   15.4639 C.3     1  UNL1        0.0996
     24 C          63.4084   85.9491   15.9639 C.3     1  UNL1        0.0791
     25 C          63.3692   84.6227   15.2645 C.ar    1  UNL1       -0.0050
     26 C          62.0969   83.8290   15.2326 C.ar    1  UNL1       -0.0030
     27 C          62.0577   82.5026   14.5332 C.ar    1  UNL1       -0.0003
     28 C          63.2908   81.9700   13.8657 C.ar    1  UNL1        0.0008
     29 C          64.5631   82.7637   13.8976 C.ar    1  UNL1        0.0111
     30 C          64.6023   84.0901   14.5970 C.ar    1  UNL1        0.0541
     31 CL         65.8748   84.8839   14.6288 Cl      1  UNL1       -0.0826
     32 C          62.5406   86.1904   17.1634 C.2     1  UNL1        0.0557
     33 O          61.0484   86.2267   17.0145 O.co2   1  UNL1       -0.5488
     34 O          63.1650   86.3955   18.5117 O.co2   1  UNL1       -0.5488
@<TRIPOS>UNITY_ATOM_ATTR
33 1
charge -1
@<TRIPOS>BOND
     1     1     2    1
     2     2     3   ar
     3     3    13    1
     4    13    14   ar
     5    14    15   ar
     6    15    16   ar
     7    16    17   ar
     8    17    18   ar
     9     3     4   ar
    10     4     5   ar
    11     5     6   ar
    12     6     7   ar
    13     7     8   ar
    14     8     9    1
    15     8    10   ar
    16    10    11   ar
    17    11    12   ar
    18    12    19    1
    19    19    20    2
    20    19    21   am
    21    21    23    1
    22    23    24    1
    23    24    32    1
    24    32    33   ar
    25    32    34   ar
    26    24    25    1
    27    25    26   ar
    28    26    27   ar
    29    27    28   ar
    30    28    29   ar
    31    29    30   ar
    32    30    31    1
    33    12     2   ar
    34    30    25   ar
    35    18    13   ar
    36    11     5   ar
    37    21    22    1
@<TRIPOS>MOLECULE
*****
 34 37 0 0 0
SMALL
GASTEIGER

@<TRIPOS>ATOM
      1 C          63.2027   86.5637   13.0174 C.3     1  UNL1        0.0328
      2 C          62.4603   86.4182   11.7221 C.ar    1  UNL1        0.0002
      3 C          62.3212   85.0674   11.0850 C.ar    1  UNL1        0.0774
      4 N          61.5788   84.9218    9.7898 N.ar    1  UNL1       -0.2457
      5 C          60.9755   86.1272    9.1316 C.ar    1  UNL1        0.0814
      6 C          60.2331   85.9816    7.8363 C.ar    1  UNL1        0.0196
      7 C          59.6298   87.1869    7.1782 C.ar    1  UNL1        0.0082
      8 C          59.7689   88.5378    7.8152 C.ar    1  UNL1        0.0347
      9 BR         59.1656   89.7431    7.1570 Br      1  UNL1       -0.0490
     10 C          60.5113   88.6833    9.1104 C.ar    1  UNL1        0.0083
     11 C          61.1146   87.4780    9.7686 C.ar    1  UNL1        0.0222
     12 C          61.8570   87.6235   11.0639 C.ar    1  UNL1        0.0523
     13 C          62.9245   83.8620   11.7433 C.ar    1  UNL1        0.0173
     14 C          64.0613   83.1381   11.0849 C.ar    1  UNL1        0.0015
     15 C          64.6645   81.9328   11.7431 C.ar    1  UNL1        0.0000
     16 C          64.1310   81.4515   13.0598 C.ar    1  UNL1        0.0000
     17 C          62.9942   82.1754   13.7182 C.ar    1  UNL1        0.0000
     18 C          62.3909   83.3807   13.0600 C.ar    1  UNL1        0.0015
     19 C          61.9961   88.9744   11.7010 C.2     1  UNL1        0.2457
     20 O          60.7850   89.6799   12.2352 O.2     1  UNL1       -0.2702
     21 N          63.3463   89.6197   11.8037 N.am    1  UNL1       -0.3002
     22 H          64.1412   89.1566   11.4530 H       1  UNL1        0.1498
     23 C          63.4854   90.9706   12.4407 C.3     1  UNL1        0.0996
     24 C          64.1544   91.1045   13.7766 C.3     1  UNL1        0.0791
     25 C          65.5823   91.5567   13.8583 C.ar    1  UNL1       -0.0050
     26 C          66.4156   91.1973   15.0527 C.ar    1  UNL1       -0.0030
     27 C          67.8435   91.6494   15.1344 C.ar    1  UNL1       -0.0003
     28 C          68.4381   92.4609   14.0218 C.ar    1  UNL1        0.0008
     29 C          67.6048   92.8203   12.8275 C.ar    1  UNL1        0.0111
     30 C          66.1769   92.3681   12.7458 C.ar    1  UNL1        0.0541
     31 CL         65.3436   92.7275   11.5513 Cl      1  UNL1       -0.0826
     32 C          63.3955   90.7864   15.0306 C.2     1  UNL1        0.0557
     33 O          63.4581   91.7205   16.2026 O.co2   1  UNL1       -0.5488
     34 O          62.5739   89.5340   15.1128 O.co2   1  UNL1       -0.5488
@<TRIPOS>UNITY_ATOM_ATTR
33 1
charge -1
@<TRIPOS>BOND
     1     1     2    1
     2     2     3   ar
     3     3    13    1
     4    13    14   ar
     5    14    15   ar
     6    15    16   ar
     7    16    17   ar
     8    17    18   ar
     9     3     4   ar
    10     4     5   ar
    11     5     6   ar
    12     6     7   ar
    13     7     8   ar
    14     8     9    1
    15     8    10   ar
    16    10    11   ar
    17    11    12   ar
    18    12    19    1
    19    19    20    2
    20    19    21   am
    21    21    23    1
    22    23    24    1
    23    24    32    1
    24    32    33   ar
    25    32    34   ar
    26    24    25    1
    27    25    26   ar
    28    26    27   ar
    29    27    28   ar
    30    28    29   ar
    31    29    30   ar
    32    30    31    1
    33    12     2   ar
    34    30    25   ar
    35    18    13   ar
    36    11     5   ar
    37    21    22    1
@<TRIPOS>MOLECULE
*****
 34 37 0 0 0
SMALL
GASTEIGER

@<TRIPOS>ATOM
      1 C          61.7149   90.3720   10.6234 C.3     1  UNL1        0.0328
      2 C          62.0459   88.9893   11.1016 C.ar    1  UNL1        0.0002
      3 C          61.4827   87.7948   10.3902 C.ar    1  UNL1        0.0774
      4 N          61.8136   86.4122   10.8683 N.ar    1  UNL1       -0.2457
      5 C          62.7078   86.2239   12.0579 C.ar    1  UNL1        0.0814
      6 C          63.0387   84.8412   12.5360 C.ar    1  UNL1        0.0196
      7 C          63.9328   84.6530   13.7256 C.ar    1  UNL1        0.0082
      8 C          64.4960   85.8474   14.4370 C.ar    1  UNL1        0.0347
      9 BR         65.3902   85.6591   15.6266 Br      1  UNL1       -0.0490
     10 C          64.1651   87.2301   13.9588 C.ar    1  UNL1        0.0083
     11 C          63.2710   87.4183   12.7693 C.ar    1  UNL1        0.0222
     12 C          62.9400   88.8011   12.2911 C.ar    1  UNL1        0.0523
     13 C          60.5885   87.9831    9.2006 C.ar    1  UNL1        0.0173
     14 C          59.8644   86.8082    8.6132 C.ar    1  UNL1        0.0015
     15 C          58.9702   86.9965    7.4236 C.ar    1  UNL1        0.0000
     16 C          58.8002   88.3598    6.8215 C.ar    1  UNL1        0.0000
     17 C          59.5243   89.5348    7.4089 C.ar    1  UNL1        0.0000
     18 C          60.4184   89.3464    8.5985 C.ar    1  UNL1        0.0015
     19 C          63.5033   89.9955   13.0025 C.2     1  UNL1        0.2457
     20 O          63.0316   90.3364   14.3849 O.2     1  UNL1       -0.2702
     21 N          64.5383   90.8490   12.3313 N.am    1  UNL1       -0.3002
     22 H          64.8479   90.6252   11.4240 H       1  UNL1        0.1498
     23 C          65.1015   92.0435   13.0427 C.3     1  UNL1        0.0996
     24 C          66.5491   92.4004   12.8787 C.3     1  UNL1        0.0791
     25 C          67.0774   92.7898   11.5299 C.ar    1  UNL1       -0.0050
     26 C          67.8745   91.8072   10.7243 C.ar    1  UNL1       -0.0030
     27 C          68.4028   92.1966    9.3755 C.ar    1  UNL1       -0.0003
     28 C          68.1340   93.5687    8.8323 C.ar    1  UNL1        0.0008
     29 C          67.3369   94.5513    9.6379 C.ar    1  UNL1        0.0111
     30 C          66.8086   94.1619   10.9867 C.ar    1  UNL1        0.0541
     31 CL         66.0114   95.1446   11.7923 Cl      1  UNL1       -0.0826
     32 C          67.4685   92.3679   14.0635 C.2     1  UNL1        0.0557
     33 O          66.9018   92.3100   15.4512 O.co2   1  UNL1       -0.5488
     34 O          68.9545   92.3933   13.8607 O.co2   1  UNL1       -0.5488
@<TRIPOS>UNITY_ATOM_ATTR
33 1
charge -1
@<TRIPOS>BOND
     1     1     2    1
     2     2     3   ar
     3     3    13    1
     4    13    14   ar
     5    14    15   ar
     6    15    16   ar
     7    16    17   ar
     8    17    18   ar
     9     3     4   ar
    10     4     5   ar
    11     5     6   ar
    12     6     7   ar
    13     7     8   ar
    14     8     9    1
    15     8    10   ar
    16    10    11   ar
    17    11    12   ar
    18    12    19    1
    19    19    20    2
    20    19    21   am
    21    21    23    1
    22    23    24    1
    23    24    32    1
    24    32    33   ar
    25    32    34   ar
    26    24    25    1
    27    25    26   ar
    28    26    27   ar
    29    27    28   ar
    30    28    29   ar
    31    29    30   ar
    32    30    31    1
    33    12     2   ar
    34    30    25   ar
    35    18    13   ar
    36    11     5   ar
    37    21    22    1
@<TRIPOS>MOLECULE
*****
 34 37 0 0 0
SMALL
GASTEIGER

@<TRIPOS>ATOM
      1 C          63.4472   86.8543   13.2157 C.3     1  UNL1        0.0328
      2 C          62.6629   86.6800   11.9490 C.ar    1  UNL1        0.0002
      3 C          62.4512   85.3080   11.3808 C.ar    1  UNL1        0.0774
      4 N          61.6670   85.1337   10.1141 N.ar    1  UNL1       -0.2457
      5 C          61.0944   86.3314    9.4155 C.ar    1  UNL1        0.0814
      6 C          60.3102   86.1570    8.1489 C.ar    1  UNL1        0.0196
      7 C          59.7377   87.3546    7.4504 C.ar    1  UNL1        0.0082
      8 C          59.9494   88.7266    8.0186 C.ar    1  UNL1        0.0347
      9 BR         59.3769   89.9242    7.3201 Br      1  UNL1       -0.0490
     10 C          60.7336   88.9009    9.2853 C.ar    1  UNL1        0.0083
     11 C          61.3061   87.7033    9.9838 C.ar    1  UNL1        0.0222
     12 C          62.0904   87.8776   11.2505 C.ar    1  UNL1        0.0523
     13 C          63.0237   84.1104   12.0793 C.ar    1  UNL1        0.0173
     14 C          64.1157   83.3138   11.4290 C.ar    1  UNL1        0.0015
     15 C          64.6882   82.1162   12.1276 C.ar    1  UNL1        0.0000
     16 C          64.1687   81.7152   13.4764 C.ar    1  UNL1        0.0000
     17 C          63.0767   82.5118   14.1267 C.ar    1  UNL1        0.0000
     18 C          62.5042   83.7094   13.4281 C.ar    1  UNL1        0.0015
     19 C          62.3022   89.2496   11.8187 C.2     1  UNL1        0.2457
     20 O          61.3086   90.3383   11.5402 O.2     1  UNL1       -0.2702
     21 N          63.5075   89.5329   12.6655 N.am    1  UNL1       -0.3002
     22 H          64.1596   88.8183   12.8484 H       1  UNL1        0.1498
     23 C          63.7192   90.9048   13.2338 C.3     1  UNL1        0.0996
     24 C          64.8937   91.7265   12.7920 C.3     1  UNL1        0.0791
     25 C          66.0604   91.9238   13.7139 C.ar    1  UNL1       -0.0050
     26 C          67.4551   91.9545   13.1628 C.ar    1  UNL1       -0.0030
     27 C          68.6217   92.1518   14.0848 C.ar    1  UNL1       -0.0003
     28 C          68.3936   92.3184   15.5579 C.ar    1  UNL1        0.0008
     29 C          66.9989   92.2877   16.1091 C.ar    1  UNL1        0.0111
     30 C          65.8323   92.0904   15.1871 C.ar    1  UNL1        0.0541
     31 CL         64.4375   92.0597   15.7383 Cl      1  UNL1       -0.0826
     32 C          64.9016   92.3510   11.4282 C.2     1  UNL1        0.0557
     33 O          64.1903   91.6788   10.2913 O.co2   1  UNL1       -0.5488
     34 O          65.6208   93.6476   11.2011 O.co2   1  UNL1       -0.5488
@<TRIPOS>UNITY_ATOM_ATTR
33 1
charge -1
@<TRIPOS>BOND
     1     1     2    1
     2     2     3   ar
     3     3    13    1
     4    13    14   ar
     5    14    15   ar
     6    15    16   ar
     7    16    17   ar
     8    17    18   ar
     9     3     4   ar
    10     4     5   ar
    11     5     6   ar
    12     6     7   ar
    13     7     8   ar
    14     8     9    1
    15     8    10   ar
    16    10    11   ar
    17    11    12   ar
    18    12    19    1
    19    19    20    2
    20    19    21   am
    21    21    23    1
    22    23    24    1
    23    24    32    1
    24    32    33   ar
    25    32    34   ar
    26    24    25    1
    27    25    26   ar
    28    26    27   ar
    29    27    28   ar
    30    28    29   ar
    31    29    30   ar
    32    30    31    1
    33    12     2   ar
    34    30    25   ar
    35    18    13   ar
    36    11     5   ar
    37    21    22    1
@<TRIPOS>MOLECULE
*****
 34 37 0 0 0
SMALL
GASTEIGER

@<TRIPOS>ATOM
      1 C          64.6949   87.9800   14.7789 C.3     1  UNL1        0.0328
      2 C          63.9470   88.5693   13.6198 C.ar    1  UNL1        0.0002
      3 C          63.9559   90.0527   13.3976 C.ar    1  UNL1        0.0774
      4 N          63.2080   90.6420   12.2386 N.ar    1  UNL1       -0.2457
      5 C          62.4512   89.7478   11.3017 C.ar    1  UNL1        0.0814
      6 C          61.7033   90.3371   10.1426 C.ar    1  UNL1        0.0196
      7 C          60.9465   89.4429    9.2058 C.ar    1  UNL1        0.0082
      8 C          60.9375   87.9595    9.4280 C.ar    1  UNL1        0.0347
      9 BR         60.1807   87.0654    8.4911 Br      1  UNL1       -0.0490
     10 C          61.6854   87.3703   10.5871 C.ar    1  UNL1        0.0083
     11 C          62.4422   88.2644   11.5239 C.ar    1  UNL1        0.0222
     12 C          63.1902   87.6751   12.6830 C.ar    1  UNL1        0.0523
     13 C          64.7128   90.9469   14.3345 C.ar    1  UNL1        0.0173
     14 C          64.1519   91.2595   15.6901 C.ar    1  UNL1        0.0015
     15 C          64.9088   92.1536   16.6269 C.ar    1  UNL1        0.0000
     16 C          66.2265   92.7351   16.2081 C.ar    1  UNL1        0.0000
     17 C          66.7874   92.4226   14.8525 C.ar    1  UNL1        0.0000
     18 C          66.0305   91.5284   13.9157 C.ar    1  UNL1        0.0015
     19 C          63.1812   86.1917   12.9052 C.2     1  UNL1        0.2457
     20 O          61.8823   85.4416   12.9082 O.2     1  UNL1       -0.2702
     21 N          64.4713   85.4584   13.1244 N.am    1  UNL1       -0.3002
     22 H          65.3239   85.9507   13.1224 H       1  UNL1        0.1498
     23 C          64.4624   83.9750   13.3466 C.3     1  UNL1        0.0996
     24 C          63.8236   83.0691   12.3361 C.3     1  UNL1        0.0791
     25 C          63.0074   81.8956   12.7907 C.ar    1  UNL1       -0.0050
     26 C          63.0705   80.6007   12.0363 C.ar    1  UNL1       -0.0030
     27 C          62.2543   79.4272   12.4910 C.ar    1  UNL1       -0.0003
     28 C          61.3750   79.5486   13.7001 C.ar    1  UNL1        0.0008
     29 C          61.3119   80.8434   14.4545 C.ar    1  UNL1        0.0111
     30 C          62.1281   82.0169   13.9999 C.ar    1  UNL1        0.0541
     31 CL         62.0650   83.3119   14.7544 Cl      1  UNL1       -0.0826
     32 C          64.0010   83.3367   10.8709 C.2     1  UNL1        0.0557
     33 O          63.2590   84.4660   10.2195 O.co2   1  UNL1       -0.5488
     34 O          64.9203   82.4750   10.0570 O.co2   1  UNL1       -0.5488
@<TRIPOS>UNITY_ATOM_ATTR
33 1
charge -1
@<TRIPOS>BOND
     1     1     2    1
     2     2     3   ar
     3     3    13    1
     4    13    14   ar
     5    14    15   ar
     6    15    16   ar
     7    16    17   ar
     8    17    18   ar
     9     3     4   ar
    10     4     5   ar
    11     5     6   ar
    12     6     7   ar
    13     7     8   ar
    14     8     9    1
    15     8    10   ar
    16    10    11   ar
    17    11    12   ar
    18    12    19    1
    19    19    20    2
    20    19    21   am
    21    21    23    1
    22    23    24    1
    23    24    32    1
    24    32    33   ar
    25    32    34   ar
    26    24    25    1
    27    25    26   ar
    28    26    27   ar
    29    27    28   ar
    30    28    29   ar
    31    29    30   ar
    32    30    31    1
    33    12     2   ar
    34    30    25   ar
    35    18    13   ar
    36    11     5   ar
    37    21    22    1
@<TRIPOS>MOLECULE
*****
 34 37 0 0 0
SMALL
GASTEIGER

@<TRIPOS>ATOM
      1 C          62.5124   88.4282   12.7861 C.3     1  UNL1        0.0328
      2 C          63.4660   89.5311   13.1389 C.ar    1  UNL1        0.0002
      3 C          64.1420   89.5384   14.4779 C.ar    1  UNL1        0.0774
      4 N          65.0956   90.6412   14.8307 N.ar    1  UNL1       -0.2457
      5 C          65.3732   91.7368   13.8444 C.ar    1  UNL1        0.0814
      6 C          66.3267   92.8396   14.1971 C.ar    1  UNL1        0.0196
      7 C          66.6043   93.9351   13.2109 C.ar    1  UNL1        0.0082
      8 C          65.9283   93.9278   11.8719 C.ar    1  UNL1        0.0347
      9 BR         66.2059   95.0234   10.8856 Br      1  UNL1       -0.0490
     10 C          64.9747   92.8250   11.5191 C.ar    1  UNL1        0.0083
     11 C          64.6972   91.7295   12.5054 C.ar    1  UNL1        0.0222
     12 C          63.7436   90.6266   12.1526 C.ar    1  UNL1        0.0523
     13 C          63.8644   88.4427   15.4642 C.ar    1  UNL1        0.0173
     14 C          63.1307   88.7472   16.7365 C.ar    1  UNL1        0.0015
     15 C          62.8531   87.6516   17.7227 C.ar    1  UNL1        0.0000
     16 C          63.3093   86.2516   17.4366 C.ar    1  UNL1        0.0000
     17 C          64.0431   85.9472   16.1642 C.ar    1  UNL1        0.0000
     18 C          64.3207   87.0428   15.1780 C.ar    1  UNL1        0.0015
     19 C          63.0676   90.6193   10.8136 C.2     1  UNL1        0.2457
     20 O          63.6689   91.3747    9.6657 O.2     1  UNL1       -0.2702
     21 N          61.7901   89.8566   10.6225 N.am    1  UNL1       -0.3002
     22 H          61.3954   89.3608   11.3759 H       1  UNL1        0.1498
     23 C          61.1141   89.8493    9.2835 C.3     1  UNL1        0.0996
     24 C          60.6687   88.5525    8.6753 C.3     1  UNL1        0.0791
     25 C          61.3141   87.2657    9.0966 C.ar    1  UNL1       -0.0050
     26 C          62.2982   86.5881    8.1898 C.ar    1  UNL1       -0.0030
     27 C          62.9435   85.3012    8.6111 C.ar    1  UNL1       -0.0003
     28 C          62.6048   84.6920    9.9393 C.ar    1  UNL1        0.0008
     29 C          61.6207   85.3696   10.8461 C.ar    1  UNL1        0.0111
     30 C          60.9753   86.6564   10.4247 C.ar    1  UNL1        0.0541
     31 CL         59.9911   87.3340   11.3316 Cl      1  UNL1       -0.0826
     32 C          59.5779   88.5426    7.6457 C.2     1  UNL1        0.0557
     33 O          59.5053   89.6343    6.6194 O.co2   1  UNL1       -0.5488
     34 O          58.5597   87.4412    7.6423 O.co2   1  UNL1       -0.5488
@<TRIPOS>UNITY_ATOM_ATTR
33 1
charge -1
@<TRIPOS>BOND
     1     1     2    1
     2     2     3   ar
     3     3    13    1
     4    13    14   ar
     5    14    15   ar
     6    15    16   ar
     7    16    17   ar
     8    17    18   ar
     9     3     4   ar
    10     4     5   ar
    11     5     6   ar
    12     6     7   ar
    13     7     8   ar
    14     8     9    1
    15     8    10   ar
    16    10    11   ar
    17    11    12   ar
    18    12    19    1
    19    19    20    2
    20    19    21   am
    21    21    23    1
    22    23    24    1
    23    24    32    1
    24    32    33   ar
    25    32    34   ar
    26    24    25    1
    27    25    26   ar
    28    26    27   ar
    29    27    28   ar
    30    28    29   ar
    31    29    30   ar
    32    30    31    1
    33    12     2   ar
    34    30    25   ar
    35    18    13   ar
    36    11     5   ar
    37    21    22    1
@<TRIPOS>MOLECULE
*****
 34 37 0 0 0
SMALL
GASTEIGER

@<TRIPOS>ATOM
      1 C          61.8597   89.5744   11.0240 C.3     1  UNL1        0.0328
      2 C          62.0677   88.1023   11.2235 C.ar    1  UNL1        0.0002
      3 C          61.4359   87.1211   10.2812 C.ar    1  UNL1        0.0774
      4 N          61.6439   85.6490   10.4806 N.ar    1  UNL1       -0.2457
      5 C          62.4837   85.1582   11.6226 C.ar    1  UNL1        0.0814
      6 C          62.6916   83.6861   11.8220 C.ar    1  UNL1        0.0196
      7 C          63.5314   83.1953   12.9639 C.ar    1  UNL1        0.0082
      8 C          64.1631   84.1765   13.9063 C.ar    1  UNL1        0.0347
      9 BR         65.0029   83.6857   15.0482 Br      1  UNL1       -0.0490
     10 C          63.9552   85.6486   13.7068 C.ar    1  UNL1        0.0083
     11 C          63.1154   86.1394   12.5649 C.ar    1  UNL1        0.0222
     12 C          62.9074   87.6115   12.3654 C.ar    1  UNL1        0.0523
     13 C          60.5961   87.6120    9.1392 C.ar    1  UNL1        0.0173
     14 C          60.5515   89.0761    8.8162 C.ar    1  UNL1        0.0015
     15 C          59.7118   89.5669    7.6743 C.ar    1  UNL1        0.0000
     16 C          58.9167   88.5936    6.8555 C.ar    1  UNL1        0.0000
     17 C          58.9613   87.1295    7.1786 C.ar    1  UNL1        0.0000
     18 C          59.8010   86.6387    8.3204 C.ar    1  UNL1        0.0015
     19 C          63.5392   88.5927   13.3078 C.2     1  UNL1        0.2457
     20 O          63.9126   88.1653   14.6962 O.2     1  UNL1       -0.2702
     21 N          63.7976   90.0014   12.8616 N.am    1  UNL1       -0.3002
     22 H          63.5526   90.2819   11.9503 H       1  UNL1        0.1498
     23 C          64.4294   90.9826   13.8040 C.3     1  UNL1        0.0996
     24 C          65.4743   91.9359   13.3046 C.3     1  UNL1        0.0791
     25 C          66.6733   92.2452   14.1512 C.ar    1  UNL1       -0.0050
     26 C          66.4924   92.7759   15.5424 C.ar    1  UNL1       -0.0030
     27 C          67.6915   93.0852   16.3890 C.ar    1  UNL1       -0.0003
     28 C          69.0714   92.8639   15.8442 C.ar    1  UNL1        0.0008
     29 C          69.2523   92.3332   14.4530 C.ar    1  UNL1        0.0111
     30 C          68.0532   92.0239   13.6064 C.ar    1  UNL1        0.0541
     31 CL         68.2342   91.4933   12.2151 Cl      1  UNL1       -0.0826
     32 C          65.3201   92.5799   11.9588 C.2     1  UNL1        0.0557
     33 O          65.8020   93.9834   11.7392 O.co2   1  UNL1       -0.5488
     34 O          64.6839   91.8206   10.8324 O.co2   1  UNL1       -0.5488
@<TRIPOS>UNITY_ATOM_ATTR
33 1
charge -1
@<TRIPOS>BOND
     1     1     2    1
     2     2     3   ar
     3     3    13    1
     4    13    14   ar
     5    14    15   ar
     6    15    16   ar
     7    16    17   ar
     8    17    18   ar
     9     3     4   ar
    10     4     5   ar
    11     5     6   ar
    12     6     7   ar
    13     7     8   ar
    14     8     9    1
    15     8    10   ar
    16    10    11   ar
    17    11    12   ar
    18    12    19    1
    19    19    20    2
    20    19    21   am
    21    21    23    1
    22    23    24    1
    23    24    32    1
    24    32    33   ar
    25    32    34   ar
    26    24    25    1
    27    25    26   ar
    28    26    27   ar
    29    27    28   ar
    30    28    29   ar
    31    29    30   ar
    32    30    31    1
    33    12     2   ar
    34    30    25   ar
    35    18    13   ar
    36    11     5   ar
    37    21    22    1
