@<TRIPOS>MOLECULE
*****
 45 50 0 0 0
SMALL
GASTEIGER

@<TRIPOS>ATOM
      1 N          61.3927   88.3581   10.8095 N.am    1  UNL1       -0.2769
      2 C          62.4830   87.3754   11.1184 C.2     1  UNL1        0.2294
      3 O          63.3762   87.5941   12.3035 O.2     1  UNL1       -0.2747
      4 C          62.6802   86.1739   10.2423 C.3     1  UNL1        0.1211
      5 C          62.8611   86.3458    8.7632 C.3     1  UNL1        0.0804
      6 N          63.0582   85.1443    7.8871 N.3     1  UNL1       -0.2969
      7 C          63.0745   83.7710    8.4901 C.3     1  UNL1        0.0714
      8 C          62.8936   83.5990    9.9692 C.3     1  UNL1        0.0490
      9 C          62.6965   84.8005   10.8452 C.3     1  UNL1        0.1224
     10 O          62.4905   85.9022   11.8423 O.3     1  UNL1       -0.3492
     11 C          62.3565   85.2793   13.2003 C.3     1  UNL1        0.1687
     12 C          62.4797   83.7927   13.0426 C.ar    1  UNL1        0.0079
     13 C          62.4278   82.6703   14.0362 C.ar    1  UNL1        0.0299
     14 C          62.5859   81.2518   13.5744 C.ar    1  UNL1        0.1671
     15 F          62.5340   80.1294   14.5681 F       1  UNL1       -0.2018
     16 C          62.7960   80.9560   12.1190 C.ar    1  UNL1        0.1671
     17 F          62.9542   79.5376   11.6572 F       1  UNL1       -0.2018
     18 C          62.8480   82.0784   11.1253 C.ar    1  UNL1        0.0297
     19 C          62.6899   83.4968   11.5871 C.ar    1  UNL1        0.0033
     20 H          63.9532   85.2687    7.4138 H       1  UNL1        0.1233
     21 C          60.4995   88.1392    9.6244 C.3     1  UNL1        0.0758
     22 C          59.4518   87.3299    8.9192 C.3     1  UNL1        0.0215
     23 C          60.0001   88.5696    8.2771 C.3     1  UNL1        0.0215
     24 C          61.1955   89.5595   11.6856 C.3     1  UNL1        0.1209
     25 C          63.7491   90.5813   14.5465 C.ar    1  UNL1       -0.0226
     26 C          64.7188   91.4247   13.7730 C.ar    1  UNL1       -0.0077
     27 C          64.5141   91.6464   12.3037 C.ar    1  UNL1       -0.0121
     28 C          63.3396   91.0247   11.6078 C.ar    1  UNL1        0.0513
     29 CL         63.1349   91.2463   10.1385 Cl      1  UNL1       -0.0828
     30 C          62.3699   90.1813   12.3814 C.ar    1  UNL1        0.0076
     31 C          62.5747   89.9596   13.8507 C.ar    1  UNL1       -0.0061
     32 C          63.9538   90.3596   16.0159 C.3     1  UNL1        0.0289
     33 C          62.9378   89.5903   16.8070 C.3     1  UNL1        0.0367
     34 C          63.1432   88.1280   17.0708 C.3     1  UNL1        0.1426
     35 C          63.8679   85.7787   16.2310 C.3     1  UNL1        0.1741
     36 O          63.5110   87.2072   15.9452 O.3     1  UNL1       -0.3511
     37 C          65.4837   92.4898   11.5302 C.3     1  UNL1        0.0286
     38 C          66.3721   93.4614   12.2490 C.3     1  UNL1        0.0220
     39 C          66.2783   94.9279   11.9479 C.3     1  UNL1        0.0726
     40 N          66.2769   95.4029   10.5251 N.3     1  UNL1       -0.2684
     41 C          67.3149   94.9008    9.5658 C.3     1  UNL1        0.1046
     42 C          67.3136   95.3757    8.1430 C.3     1  UNL1        0.1595
     43 O          66.2741   96.3529    7.6795 O.3     1  UNL1       -0.3508
     44 C          65.2361   96.8550    8.6388 C.3     1  UNL1        0.1595
     45 C          65.2375   96.3800   10.0617 C.3     1  UNL1        0.1046
@<TRIPOS>BOND
     1    35    36    1
     2    36    34    1
     3    34    33    1
     4    33    32    1
     5    32    25    1
     6    25    26   ar
     7    26    27   ar
     8    27    37    1
     9    37    38    1
    10    38    39    1
    11    39    40    1
    12    40    41    1
    13    41    42    1
    14    42    43    1
    15    43    44    1
    16    44    45    1
    17    27    28   ar
    18    28    29    1
    19    28    30   ar
    20    30    24    1
    21    24     1    1
    22     1     2   am
    23     2     3    2
    24     4     2    1
    25     4     5    1
    26     5     6    1
    27     6     7    1
    28     7     8    1
    29     9     8    1
    30     9    10    1
    31    10    11    1
    32    11    12    1
    33    12    13   ar
    34    13    14   ar
    35    14    15    1
    36    14    16   ar
    37    16    17    1
    38    16    18   ar
    39    18    19   ar
    40     1    21    1
    41    21    22    1
    42    22    23    1
    43    30    31   ar
    44    31    25   ar
    45    45    40    1
    46     9     4    1
    47    19    12   ar
    48    23    21    1
    49    19     9    1
    50     6    20    1
@<TRIPOS>MOLECULE
*****
 45 50 0 0 0
SMALL
GASTEIGER

@<TRIPOS>ATOM
      1 N          61.2671   88.1417   10.7648 N.am    1  UNL1       -0.2769
      2 C          62.3856   87.1836   11.0495 C.2     1  UNL1        0.2294
      3 O          63.2939   87.4176   12.2201 O.2     1  UNL1       -0.2747
      4 C          62.5959   85.9915   10.1636 C.3     1  UNL1        0.1211
      5 C          62.7384   86.1743    8.6816 C.3     1  UNL1        0.0804
      6 N          62.9487   84.9823    7.7958 N.3     1  UNL1       -0.2969
      7 C          63.0163   83.6075    8.3919 C.3     1  UNL1        0.0714
      8 C          62.8738   83.4247    9.8738 C.3     1  UNL1        0.0490
      9 C          62.6636   84.6167   10.7597 C.3     1  UNL1        0.1224
     10 O          62.4500   85.7083   11.7662 O.3     1  UNL1       -0.3492
     11 C          62.3640   85.0766   13.1240 C.3     1  UNL1        0.1687
     12 C          62.5244   83.5945   12.9567 C.ar    1  UNL1        0.0079
     13 C          62.5259   82.4671   13.9460 C.ar    1  UNL1        0.0299
     14 C          62.7125   81.0555   13.4742 C.ar    1  UNL1        0.1671
     15 F          62.7139   79.9281   14.4636 F       1  UNL1       -0.2018
     16 C          62.8976   80.7714   12.0131 C.ar    1  UNL1        0.1671
     17 F          63.0842   79.3598   11.5413 F       1  UNL1       -0.2018
     18 C          62.8962   81.8988   11.0236 C.ar    1  UNL1        0.0297
     19 C          62.7096   83.3104   11.4954 C.ar    1  UNL1        0.0033
     20 H          63.8289   85.1332    7.3030 H       1  UNL1        0.1233
     21 C          60.3588   87.9076    9.5942 C.3     1  UNL1        0.0758
     22 C          59.7612   88.3744    8.3000 C.3     1  UNL1        0.0215
     23 C          59.3833   87.0355    8.8609 C.3     1  UNL1        0.0215
     24 C          61.0568   89.3337   11.6507 C.3     1  UNL1        0.1209
     25 C          63.7007   90.7956   14.2242 C.ar    1  UNL1       -0.0226
     26 C          64.6000   91.5633   13.3013 C.ar    1  UNL1       -0.0077
     27 C          64.3183   91.5879   11.8282 C.ar    1  UNL1       -0.0121
     28 C          63.1373   90.8447   11.2780 C.ar    1  UNL1        0.0513
     29 CL         62.8555   90.8692    9.8049 Cl      1  UNL1       -0.0828
     30 C          62.2379   90.0769   12.2009 C.ar    1  UNL1        0.0076
     31 C          62.5196   90.0524   13.6740 C.ar    1  UNL1       -0.0061
     32 C          63.9824   90.7711   15.6974 C.3     1  UNL1        0.0289
     33 C          63.1929   89.8669   16.5969 C.3     1  UNL1        0.0367
     34 C          63.4052   88.3830   16.5424 C.3     1  UNL1        0.1426
     35 C          62.6215   85.9881   17.1750 C.3     1  UNL1        0.1741
     36 O          62.3351   87.4537   17.0337 O.3     1  UNL1       -0.3511
     37 C          65.2177   92.3556   10.9053 C.3     1  UNL1        0.0286
     38 C          65.3768   93.8375   11.0742 C.3     1  UNL1        0.0220
     39 C          66.5028   94.3814   11.9027 C.3     1  UNL1        0.0726
     40 N          67.0404   93.5837   13.0536 N.3     1  UNL1       -0.2684
     41 C          66.6711   93.9532   14.4597 C.3     1  UNL1        0.1046
     42 C          67.2087   93.1555   15.6106 C.3     1  UNL1        0.1595
     43 O          68.1157   91.9883   15.3555 O.3     1  UNL1       -0.3508
     44 C          68.4850   91.6188   13.9494 C.3     1  UNL1        0.1595
     45 C          67.9473   92.4165   12.7984 C.3     1  UNL1        0.1046
@<TRIPOS>BOND
     1    35    36    1
     2    36    34    1
     3    34    33    1
     4    33    32    1
     5    32    25    1
     6    25    26   ar
     7    26    27   ar
     8    27    37    1
     9    37    38    1
    10    38    39    1
    11    39    40    1
    12    40    41    1
    13    41    42    1
    14    42    43    1
    15    43    44    1
    16    44    45    1
    17    27    28   ar
    18    28    29    1
    19    28    30   ar
    20    30    24    1
    21    24     1    1
    22     1     2   am
    23     2     3    2
    24     4     2    1
    25     4     5    1
    26     5     6    1
    27     6     7    1
    28     7     8    1
    29     9     8    1
    30     9    10    1
    31    10    11    1
    32    11    12    1
    33    12    13   ar
    34    13    14   ar
    35    14    15    1
    36    14    16   ar
    37    16    17    1
    38    16    18   ar
    39    18    19   ar
    40     1    21    1
    41    21    22    1
    42    22    23    1
    43    30    31   ar
    44    31    25   ar
    45    45    40    1
    46     9     4    1
    47    19    12   ar
    48    23    21    1
    49    19     9    1
    50     6    20    1
@<TRIPOS>MOLECULE
*****
 45 50 0 0 0
SMALL
GASTEIGER

@<TRIPOS>ATOM
      1 N          61.3617   89.8227   11.3219 N.am    1  UNL1       -0.2769
      2 C          62.1933   89.1119   10.2956 C.2     1  UNL1        0.2294
      3 O          63.5229   89.6737    9.8877 O.2     1  UNL1       -0.2747
      4 C          61.6952   87.8393    9.6771 C.3     1  UNL1        0.1211
      5 C          60.8856   87.8855    8.4151 C.3     1  UNL1        0.0804
      6 N          60.3875   86.6130    7.7967 N.3     1  UNL1       -0.2969
      7 C          60.6990   85.2943    8.4402 C.3     1  UNL1        0.0714
      8 C          61.5085   85.2481    9.7021 C.3     1  UNL1        0.0490
      9 C          62.0066   86.5207   10.3205 C.3     1  UNL1        0.1224
     10 O          62.5697   87.7039   11.0507 O.3     1  UNL1       -0.3492
     11 C          63.3063   87.1978   12.2553 C.3     1  UNL1        0.1687
     12 C          63.1985   85.7017   12.2698 C.ar    1  UNL1        0.0079
     13 C          63.7280   84.6664   13.2172 C.ar    1  UNL1        0.0299
     14 C          63.4543   83.2125   12.9690 C.ar    1  UNL1        0.1671
     15 F          63.9837   82.1773   13.9164 F       1  UNL1       -0.2018
     16 C          62.6510   82.7941   11.7733 C.ar    1  UNL1        0.1671
     17 F          62.3773   81.3404   11.5251 F       1  UNL1       -0.2018
     18 C          62.1215   83.8295   10.8258 C.ar    1  UNL1        0.0297
     19 C          62.3952   85.2832   11.0740 C.ar    1  UNL1        0.0033
     20 H          60.7683   86.5764    6.8512 H       1  UNL1        0.1233
     21 C          60.0320   89.2608   11.7297 C.3     1  UNL1        0.0758
     22 C          58.8108   89.3138   12.5991 C.3     1  UNL1        0.0215
     23 C          58.9502   88.2346   11.5667 C.3     1  UNL1        0.0215
     24 C          61.8598   91.0952   11.9404 C.3     1  UNL1        0.1209
     25 C          63.9546   90.3915   15.2369 C.ar    1  UNL1       -0.0226
     26 C          65.2792   90.9881   14.8637 C.ar    1  UNL1       -0.0077
     27 C          65.4642   91.6205   13.5161 C.ar    1  UNL1       -0.0121
     28 C          64.3243   91.6561   12.5417 C.ar    1  UNL1        0.0513
     29 CL         64.5092   92.2884   11.1941 Cl      1  UNL1       -0.0828
     30 C          62.9996   91.0595   12.9148 C.ar    1  UNL1        0.0076
     31 C          62.8148   90.4272   14.2624 C.ar    1  UNL1       -0.0061
     32 C          63.7696   89.7592   16.5845 C.3     1  UNL1        0.0289
     33 C          62.6638   88.7696   16.8032 C.3     1  UNL1        0.0367
     34 C          62.9462   87.4711   17.4990 C.3     1  UNL1        0.1426
     35 C          62.2748   85.1836   16.4661 C.3     1  UNL1        0.1741
     36 O          61.9768   86.3322   17.3837 O.3     1  UNL1       -0.3511
     37 C          66.7888   92.2171   13.1430 C.3     1  UNL1        0.0286
     38 C          67.0396   93.6802   13.3580 C.3     1  UNL1        0.0220
     39 C          66.3200   94.6956   12.5205 C.3     1  UNL1        0.0726
     40 N          66.7807   94.9755   11.1207 N.3     1  UNL1       -0.2684
     41 C          66.7040   96.3688   10.5704 C.3     1  UNL1        0.1046
     42 C          67.1646   96.6487    9.1706 C.3     1  UNL1        0.1595
     43 O          67.7020   95.5353    8.3211 O.3     1  UNL1       -0.3508
     44 C          67.7787   94.1420    8.8714 C.3     1  UNL1        0.1595
     45 C          67.3180   93.8621   10.2713 C.3     1  UNL1        0.1046
@<TRIPOS>BOND
     1    35    36    1
     2    36    34    1
     3    34    33    1
     4    33    32    1
     5    32    25    1
     6    25    26   ar
     7    26    27   ar
     8    27    37    1
     9    37    38    1
    10    38    39    1
    11    39    40    1
    12    40    41    1
    13    41    42    1
    14    42    43    1
    15    43    44    1
    16    44    45    1
    17    27    28   ar
    18    28    29    1
    19    28    30   ar
    20    30    24    1
    21    24     1    1
    22     1     2   am
    23     2     3    2
    24     4     2    1
    25     4     5    1
    26     5     6    1
    27     6     7    1
    28     7     8    1
    29     9     8    1
    30     9    10    1
    31    10    11    1
    32    11    12    1
    33    12    13   ar
    34    13    14   ar
    35    14    15    1
    36    14    16   ar
    37    16    17    1
    38    16    18   ar
    39    18    19   ar
    40     1    21    1
    41    21    22    1
    42    22    23    1
    43    30    31   ar
    44    31    25   ar
    45    45    40    1
    46     9     4    1
    47    19    12   ar
    48    23    21    1
    49    19     9    1
    50     6    20    1
