@<TRIPOS>MOLECULE
*****
 24 26 0 0 0
SMALL
GASTEIGER

@<TRIPOS>ATOM
      1 C          62.1168   86.8117   10.7046 C.ar    1  UNL1        0.0801
      2 C          62.1153   86.5215    9.2329 C.ar    1  UNL1        0.0241
      3 C          62.6893   85.2335    8.7219 C.ar    1  UNL1        0.0360
      4 BR         62.6877   84.9433    7.2501 Br      1  UNL1       -0.0490
      5 C          63.2648   84.2354    9.6825 C.ar    1  UNL1        0.0099
      6 C          63.2663   84.5256   11.1541 C.ar    1  UNL1        0.0394
      7 C          63.7606   83.7388   12.3317 C.ar    1  UNL1        0.0418
      8 C          63.4920   84.5408   13.5706 C.ar    1  UNL1        0.1593
      9 O          62.8318   85.8231   13.1586 O.2     1  UNL1       -0.4511
     10 C          62.6923   85.8137   11.6652 C.ar    1  UNL1        0.1583
     11 C          63.8252   84.1321   14.9749 C.2     1  UNL1        0.1076
     12 O          64.0252   85.1768   16.0325 O.co2   1  UNL1       -0.5415
     13 O          63.9584   82.6788   15.3215 O.co2   1  UNL1       -0.5415
     14 N          61.5427   88.0999   11.2156 N.pl3   1  UNL1       -0.3317
     15 H          60.5728   88.1825   11.3625 H       1  UNL1        0.1469
     16 N          65.1580   92.7485   12.3646 N.3     1  UNL1       -0.3222
     17 C          64.2541   91.5863   12.0773 C.3     1  UNL1        0.0509
     18 C          63.6137   91.4500   10.7279 C.3     1  UNL1        0.0172
     19 C          62.7099   90.2878   10.4405 C.3     1  UNL1        0.0208
     20 C          62.4465   89.2620   11.5028 C.3     1  UNL1        0.0692
     21 C          63.0870   89.3984   12.8524 C.3     1  UNL1        0.0208
     22 C          63.9908   90.5605   13.1397 C.3     1  UNL1        0.0172
     23 H          65.2233   93.3412   11.5370 H       1  UNL1        0.1188
     24 H          66.0862   92.4047   12.6107 H       1  UNL1        0.1188
@<TRIPOS>UNITY_ATOM_ATTR
12 1
charge -1
@<TRIPOS>BOND
     1    17    16    1
     2    17    18    1
     3    18    19    1
     4    19    20    1
     5    20    14    1
     6    14     1    1
     7     1     2   ar
     8     2     3   ar
     9     3     4    1
    10     3     5   ar
    11     5     6   ar
    12     6     7   ar
    13     7     8   ar
    14     8    11    1
    15    11    12   ar
    16    11    13   ar
    17     8     9   ar
    18     9    10   ar
    19    20    21    1
    20    21    22    1
    21    22    17    1
    22    10     1   ar
    23    10     6   ar
    24    16    23    1
    25    16    24    1
    26    14    15    1
@<TRIPOS>MOLECULE
*****
 24 26 0 0 0
SMALL
GASTEIGER

@<TRIPOS>ATOM
      1 C          64.1934   91.2308   13.3524 C.ar    1  UNL1        0.0801
      2 C          65.2554   92.1088   12.7598 C.ar    1  UNL1        0.0241
      3 C          65.2522   92.4010   11.2886 C.ar    1  UNL1        0.0360
      4 BR         66.3143   93.2791   10.6961 Br      1  UNL1       -0.0490
      5 C          64.1871   91.8150   10.4098 C.ar    1  UNL1        0.0099
      6 C          63.1251   90.9370   11.0024 C.ar    1  UNL1        0.0394
      7 C          61.9562   90.2234   10.3906 C.ar    1  UNL1        0.0418
      8 C          61.2369   89.4902   11.4838 C.ar    1  UNL1        0.1593
      9 O          61.9612   89.7507   12.7712 O.2     1  UNL1       -0.4511
     10 C          63.1283   90.6448   12.4737 C.ar    1  UNL1        0.1583
     11 C          60.0087   88.6449   11.3186 C.2     1  UNL1        0.1076
     12 O          59.8272   87.8200   10.0790 O.co2   1  UNL1       -0.5415
     13 O          58.9622   88.6246   12.3929 O.co2   1  UNL1       -0.5415
     14 N          64.1966   90.9386   14.8237 N.pl3   1  UNL1       -0.3317
     15 H          64.3556   91.6646   15.4693 H       1  UNL1        0.1469
     16 N          63.2398   85.3456   16.7739 N.3     1  UNL1       -0.3222
     17 C          63.4790   86.7439   16.2863 C.3     1  UNL1        0.0509
     18 C          64.2671   86.9761   15.0314 C.3     1  UNL1        0.0172
     19 C          64.5063   88.3743   14.5438 C.3     1  UNL1        0.0208
     20 C          63.9574   89.5404   15.3112 C.3     1  UNL1        0.0692
     21 C          63.1692   89.3083   16.5662 C.3     1  UNL1        0.0208
     22 C          62.9301   87.9100   17.0537 C.3     1  UNL1        0.0172
     23 H          63.6805   84.6830   16.1358 H       1  UNL1        0.1188
     24 H          62.2365   85.1656   16.8114 H       1  UNL1        0.1188
@<TRIPOS>UNITY_ATOM_ATTR
12 1
charge -1
@<TRIPOS>BOND
     1    17    16    1
     2    17    18    1
     3    18    19    1
     4    19    20    1
     5    20    14    1
     6    14     1    1
     7     1     2   ar
     8     2     3   ar
     9     3     4    1
    10     3     5   ar
    11     5     6   ar
    12     6     7   ar
    13     7     8   ar
    14     8    11    1
    15    11    12   ar
    16    11    13   ar
    17     8     9   ar
    18     9    10   ar
    19    20    21    1
    20    21    22    1
    21    22    17    1
    22    10     1   ar
    23    10     6   ar
    24    16    23    1
    25    16    24    1
    26    14    15    1
@<TRIPOS>MOLECULE
*****
 24 26 0 0 0
SMALL
GASTEIGER

@<TRIPOS>ATOM
      1 C          61.4260   88.8098   11.1401 C.ar    1  UNL1        0.0801
      2 C          60.6262   89.1768    9.9253 C.ar    1  UNL1        0.0241
      3 C          60.3306   88.1415    8.8811 C.ar    1  UNL1        0.0360
      4 BR         59.5308   88.5085    7.6663 Br      1  UNL1       -0.0490
      5 C          60.8346   86.7389    9.0516 C.ar    1  UNL1        0.0099
      6 C          61.6344   86.3719   10.2664 C.ar    1  UNL1        0.0394
      7 C          62.2589   85.0804   10.7043 C.ar    1  UNL1        0.0418
      8 C          62.9405   85.3176   12.0193 C.ar    1  UNL1        0.1593
      9 O          62.7373   86.7557   12.3940 O.2     1  UNL1       -0.4511
     10 C          61.9300   87.4074   11.3107 C.ar    1  UNL1        0.1583
     11 C          63.6933   84.2960   12.8191 C.2     1  UNL1        0.1076
     12 O          64.4677   83.2181   12.1202 O.co2   1  UNL1       -0.5415
     13 O          63.6716   84.3522   14.3179 O.co2   1  UNL1       -0.5415
     14 N          61.7216   89.8452   12.1844 N.pl3   1  UNL1       -0.3317
     15 H          61.0854   89.9982   12.9199 H       1  UNL1        0.1469
     16 N          66.7818   93.0549   11.8785 N.3     1  UNL1       -0.3222
     17 C          65.5167   92.2524   11.9550 C.3     1  UNL1        0.0509
     18 C          65.1002   91.6310   13.2550 C.3     1  UNL1        0.0172
     19 C          63.8351   90.8286   13.3316 C.3     1  UNL1        0.0208
     20 C          62.9867   90.6476   12.1079 C.3     1  UNL1        0.0692
     21 C          63.4031   91.2691   10.8077 C.3     1  UNL1        0.0208
     22 C          64.6682   92.0715   10.7313 C.3     1  UNL1        0.0172
     23 H          67.2284   93.0737   12.7953 H       1  UNL1        0.1188
     24 H          66.5630   94.0076   11.5872 H       1  UNL1        0.1188
@<TRIPOS>UNITY_ATOM_ATTR
12 1
charge -1
@<TRIPOS>BOND
     1    17    16    1
     2    17    18    1
     3    18    19    1
     4    19    20    1
     5    20    14    1
     6    14     1    1
     7     1     2   ar
     8     2     3   ar
     9     3     4    1
    10     3     5   ar
    11     5     6   ar
    12     6     7   ar
    13     7     8   ar
    14     8    11    1
    15    11    12   ar
    16    11    13   ar
    17     8     9   ar
    18     9    10   ar
    19    20    21    1
    20    21    22    1
    21    22    17    1
    22    10     1   ar
    23    10     6   ar
    24    16    23    1
    25    16    24    1
    26    14    15    1
@<TRIPOS>MOLECULE
*****
 24 26 0 0 0
SMALL
GASTEIGER

@<TRIPOS>ATOM
      1 C          62.1221   86.2298   10.1548 C.ar    1  UNL1        0.0801
      2 C          61.0849   86.0331    9.0891 C.ar    1  UNL1        0.0241
      3 C          60.0763   87.1093    8.8165 C.ar    1  UNL1        0.0360
      4 BR         59.0391   86.9126    7.7508 Br      1  UNL1       -0.0490
      5 C          60.1047   88.3822    9.6096 C.ar    1  UNL1        0.0099
      6 C          61.1418   88.5789   10.6752 C.ar    1  UNL1        0.0394
      7 C          61.4152   89.7184   11.6116 C.ar    1  UNL1        0.0418
      8 C          62.5928   89.3464   12.4629 C.ar    1  UNL1        0.1593
      9 O          63.0473   87.9771   12.0527 O.2     1  UNL1       -0.4511
     10 C          62.1505   87.5027   10.9479 C.ar    1  UNL1        0.1583
     11 C          63.2080   90.1949   13.5361 C.2     1  UNL1        0.1076
     12 O          63.2160   89.7168   14.9578 O.co2   1  UNL1       -0.5415
     13 O          63.8152   91.5215   13.1875 O.co2   1  UNL1       -0.5415
     14 N          63.1307   85.1536   10.4274 N.pl3   1  UNL1       -0.3317
     15 H          63.9481   85.0954    9.8818 H       1  UNL1        0.1469
     16 N          62.1839   81.2033   14.8432 N.3     1  UNL1       -0.3222
     17 C          62.4206   82.1909   13.7393 C.3     1  UNL1        0.0509
     18 C          62.4947   83.6569   14.0476 C.3     1  UNL1        0.0172
     19 C          62.7314   84.6446   12.9437 C.3     1  UNL1        0.0208
     20 C          62.8940   84.1660   11.5314 C.3     1  UNL1        0.0692
     21 C          62.8199   82.6999   11.2230 C.3     1  UNL1        0.0208
     22 C          62.5832   81.7124   12.3269 C.3     1  UNL1        0.0172
     23 H          62.0975   81.6992   15.7304 H       1  UNL1        0.1188
     24 H          62.9685   80.5534   14.8920 H       1  UNL1        0.1188
@<TRIPOS>UNITY_ATOM_ATTR
12 1
charge -1
@<TRIPOS>BOND
     1    17    16    1
     2    17    18    1
     3    18    19    1
     4    19    20    1
     5    20    14    1
     6    14     1    1
     7     1     2   ar
     8     2     3   ar
     9     3     4    1
    10     3     5   ar
    11     5     6   ar
    12     6     7   ar
    13     7     8   ar
    14     8    11    1
    15    11    12   ar
    16    11    13   ar
    17     8     9   ar
    18     9    10   ar
    19    20    21    1
    20    21    22    1
    21    22    17    1
    22    10     1   ar
    23    10     6   ar
    24    16    23    1
    25    16    24    1
    26    14    15    1
@<TRIPOS>MOLECULE
*****
 24 26 0 0 0
SMALL
GASTEIGER

@<TRIPOS>ATOM
      1 C          64.0057   90.4192   14.7063 C.ar    1  UNL1        0.0801
      2 C          65.2320   91.2337   14.9937 C.ar    1  UNL1        0.0241
      3 C          65.8383   92.0823   13.9157 C.ar    1  UNL1        0.0360
      4 BR         67.0647   92.8969   14.2031 Br      1  UNL1       -0.0490
      5 C          65.2184   92.1163   12.5502 C.ar    1  UNL1        0.0099
      6 C          63.9921   91.3018   12.2628 C.ar    1  UNL1        0.0394
      7 C          63.1657   91.1354   11.0221 C.ar    1  UNL1        0.0418
      8 C          62.0486   90.1840   11.3333 C.ar    1  UNL1        0.1593
      9 O          62.1845   89.7624   12.7664 O.2     1  UNL1       -0.4511
     10 C          63.3857   90.4532   13.3409 C.ar    1  UNL1        0.1583
     11 C          60.9826   89.7334   10.3791 C.2     1  UNL1        0.1076
     12 O          61.1788   88.4854    9.5704 O.co2   1  UNL1       -0.5415
     13 O          59.7205   90.5307   10.2335 O.co2   1  UNL1       -0.5415
     14 N          63.3993   89.5706   15.7844 N.pl3   1  UNL1       -0.3317
     15 H          62.8745   89.9899   16.5042 H       1  UNL1        0.1469
     16 N          64.1720   83.6210   15.7103 N.3     1  UNL1       -0.3222
     17 C          63.9789   85.1085   15.7288 C.3     1  UNL1        0.0509
     18 C          64.5661   85.9546   14.6384 C.3     1  UNL1        0.0172
     19 C          64.3730   87.4421   14.6569 C.3     1  UNL1        0.0208
     20 C          63.5925   88.0832   15.7659 C.3     1  UNL1        0.0692
     21 C          63.0051   87.2370   16.8563 C.3     1  UNL1        0.0208
     22 C          63.1983   85.7496   16.8378 C.3     1  UNL1        0.0172
     23 H          64.7221   83.3597   14.8920 H       1  UNL1        0.1188
     24 H          63.2628   83.1605   15.6699 H       1  UNL1        0.1188
@<TRIPOS>UNITY_ATOM_ATTR
12 1
charge -1
@<TRIPOS>BOND
     1    17    16    1
     2    17    18    1
     3    18    19    1
     4    19    20    1
     5    20    14    1
     6    14     1    1
     7     1     2   ar
     8     2     3   ar
     9     3     4    1
    10     3     5   ar
    11     5     6   ar
    12     6     7   ar
    13     7     8   ar
    14     8    11    1
    15    11    12   ar
    16    11    13   ar
    17     8     9   ar
    18     9    10   ar
    19    20    21    1
    20    21    22    1
    21    22    17    1
    22    10     1   ar
    23    10     6   ar
    24    16    23    1
    25    16    24    1
    26    14    15    1
@<TRIPOS>MOLECULE
*****
 24 26 0 0 0
SMALL
GASTEIGER

@<TRIPOS>ATOM
      1 C          63.8220   84.1026   14.1402 C.ar    1  UNL1        0.0801
      2 C          63.6879   82.6093   14.1852 C.ar    1  UNL1        0.0241
      3 C          62.9617   81.8881   13.0887 C.ar    1  UNL1        0.0360
      4 BR         62.8277   80.3947   13.1337 Br      1  UNL1       -0.0490
      5 C          62.3694   82.6602   11.9471 C.ar    1  UNL1        0.0099
      6 C          62.5034   84.1535   11.9021 C.ar    1  UNL1        0.0394
      7 C          62.0274   85.1745   10.9117 C.ar    1  UNL1        0.0418
      8 C          62.4595   86.5267   11.3961 C.ar    1  UNL1        0.1593
      9 O          63.2025   86.3415   12.6859 O.2     1  UNL1       -0.4511
     10 C          63.2297   84.8747   12.9986 C.ar    1  UNL1        0.1583
     11 C          62.1949   87.8347   10.7111 C.2     1  UNL1        0.1076
     12 O          62.7225   89.1096   11.2993 O.co2   1  UNL1       -0.5415
     13 O          61.4028   87.8677    9.4377 O.co2   1  UNL1       -0.5415
     14 N          64.5482   84.8238   15.2367 N.pl3   1  UNL1       -0.3317
     15 H          65.3016   84.3886   15.6973 H       1  UNL1        0.1469
     16 N          62.8618   90.3613   16.8155 N.3     1  UNL1       -0.3222
     17 C          63.2834   88.9769   16.4208 C.3     1  UNL1        0.0509
     18 C          62.8540   87.7988   17.2439 C.3     1  UNL1        0.0172
     19 C          63.2756   86.4144   16.8493 C.3     1  UNL1        0.0208
     20 C          64.1266   86.2082   15.6314 C.3     1  UNL1        0.0692
     21 C          64.5561   87.3863   14.8082 C.3     1  UNL1        0.0208
     22 C          64.1345   88.7706   15.2029 C.3     1  UNL1        0.0172
     23 H          62.2923   90.3154   17.6604 H       1  UNL1        0.1188
     24 H          62.3174   90.7791   16.0608 H       1  UNL1        0.1188
@<TRIPOS>UNITY_ATOM_ATTR
12 1
charge -1
@<TRIPOS>BOND
     1    17    16    1
     2    17    18    1
     3    18    19    1
     4    19    20    1
     5    20    14    1
     6    14     1    1
     7     1     2   ar
     8     2     3   ar
     9     3     4    1
    10     3     5   ar
    11     5     6   ar
    12     6     7   ar
    13     7     8   ar
    14     8    11    1
    15    11    12   ar
    16    11    13   ar
    17     8     9   ar
    18     9    10   ar
    19    20    21    1
    20    21    22    1
    21    22    17    1
    22    10     1   ar
    23    10     6   ar
    24    16    23    1
    25    16    24    1
    26    14    15    1
@<TRIPOS>MOLECULE
*****
 24 26 0 0 0
SMALL
GASTEIGER

@<TRIPOS>ATOM
      1 C          62.5946   86.4803   11.9028 C.ar    1  UNL1        0.0801
      2 C          61.8262   85.8853   10.7602 C.ar    1  UNL1        0.0241
      3 C          61.3472   86.7619    9.6412 C.ar    1  UNL1        0.0360
      4 BR         60.5788   86.1669    8.4986 Br      1  UNL1       -0.0490
      5 C          61.6367   88.2336    9.6648 C.ar    1  UNL1        0.0099
      6 C          62.4051   88.8285   10.8074 C.ar    1  UNL1        0.0394
      7 C          62.8380   90.2342   11.1019 C.ar    1  UNL1        0.0418
      8 C          63.5845   90.2263   12.4029 C.ar    1  UNL1        0.1593
      9 O          63.6130   88.8158   12.9125 O.2     1  UNL1       -0.4511
     10 C          62.8841   87.9519   11.9263 C.ar    1  UNL1        0.1583
     11 C          64.1953   91.4194   13.0762 C.2     1  UNL1        0.1076
     12 O          63.9887   91.6389   14.5456 O.co2   1  UNL1       -0.5415
     13 O          65.0127   92.3931   12.2801 O.co2   1  UNL1       -0.5415
     14 N          63.0735   85.6036   13.0217 N.pl3   1  UNL1       -0.3317
     15 H          63.4923   86.0053   13.8170 H       1  UNL1        0.1469
     16 N          62.4368   79.6490   12.6509 N.3     1  UNL1       -0.3222
     17 C          62.5960   81.1377   12.7436 C.3     1  UNL1        0.0509
     18 C          62.1576   81.8632   13.9811 C.3     1  UNL1        0.0172
     19 C          62.3168   83.3519   14.0738 C.3     1  UNL1        0.0208
     20 C          62.9143   84.1150   12.9290 C.3     1  UNL1        0.0692
     21 C          63.3528   83.3895   11.6915 C.3     1  UNL1        0.0208
     22 C          63.1936   81.9009   11.5988 C.3     1  UNL1        0.0172
     23 H          62.0172   79.2977   13.5116 H       1  UNL1        0.1188
     24 H          63.3511   79.2170   12.5172 H       1  UNL1        0.1188
@<TRIPOS>UNITY_ATOM_ATTR
12 1
charge -1
@<TRIPOS>BOND
     1    17    16    1
     2    17    18    1
     3    18    19    1
     4    19    20    1
     5    20    14    1
     6    14     1    1
     7     1     2   ar
     8     2     3   ar
     9     3     4    1
    10     3     5   ar
    11     5     6   ar
    12     6     7   ar
    13     7     8   ar
    14     8    11    1
    15    11    12   ar
    16    11    13   ar
    17     8     9   ar
    18     9    10   ar
    19    20    21    1
    20    21    22    1
    21    22    17    1
    22    10     1   ar
    23    10     6   ar
    24    16    23    1
    25    16    24    1
    26    14    15    1
@<TRIPOS>MOLECULE
*****
 24 26 0 0 0
SMALL
GASTEIGER

@<TRIPOS>ATOM
      1 C          63.7763   90.1997   14.2149 C.ar    1  UNL1        0.0801
      2 C          62.8435   90.0137   13.0551 C.ar    1  UNL1        0.0241
      3 C          63.1019   90.7293   11.7625 C.ar    1  UNL1        0.0360
      4 BR         62.1689   90.5433   10.6027 Br      1  UNL1       -0.0490
      5 C          64.2932   91.6311   11.6296 C.ar    1  UNL1        0.0099
      6 C          65.2261   91.8171   12.7894 C.ar    1  UNL1        0.0394
      7 C          66.4723   92.6355   12.9538 C.ar    1  UNL1        0.0418
      8 C          66.9841   92.4256   14.3481 C.ar    1  UNL1        0.1593
      9 O          66.0542   91.4775   15.0454 O.2     1  UNL1       -0.4511
     10 C          64.9677   91.1014   14.0821 C.ar    1  UNL1        0.1583
     11 C          68.2105   93.0536   14.9410 C.2     1  UNL1        0.1076
     12 O          69.5680   92.6876   14.4182 O.co2   1  UNL1       -0.5415
     13 O          68.0795   94.0476   16.0567 O.co2   1  UNL1       -0.5415
     14 N          63.5179   89.4840   15.5076 N.pl3   1  UNL1       -0.3317
     15 H          63.2465   89.9922   16.3059 H       1  UNL1        0.1469
     16 N          64.1382   83.5239   15.8130 N.3     1  UNL1       -0.3222
     17 C          63.9831   85.0140   15.7366 C.3     1  UNL1        0.0509
     18 C          64.5811   85.7724   14.5890 C.3     1  UNL1        0.0172
     19 C          64.4260   87.2625   14.5126 C.3     1  UNL1        0.0208
     20 C          63.6730   87.9940   15.5839 C.3     1  UNL1        0.0692
     21 C          63.0749   87.2355   16.7316 C.3     1  UNL1        0.0208
     22 C          63.2300   85.7455   16.8080 C.3     1  UNL1        0.0172
     23 H          64.6734   83.1961   15.0090 H       1  UNL1        0.1188
     24 H          63.2172   83.0856   15.8099 H       1  UNL1        0.1188
@<TRIPOS>UNITY_ATOM_ATTR
12 1
charge -1
@<TRIPOS>BOND
     1    17    16    1
     2    17    18    1
     3    18    19    1
     4    19    20    1
     5    20    14    1
     6    14     1    1
     7     1     2   ar
     8     2     3   ar
     9     3     4    1
    10     3     5   ar
    11     5     6   ar
    12     6     7   ar
    13     7     8   ar
    14     8    11    1
    15    11    12   ar
    16    11    13   ar
    17     8     9   ar
    18     9    10   ar
    19    20    21    1
    20    21    22    1
    21    22    17    1
    22    10     1   ar
    23    10     6   ar
    24    16    23    1
    25    16    24    1
    26    14    15    1
@<TRIPOS>MOLECULE
*****
 24 26 0 0 0
SMALL
GASTEIGER

@<TRIPOS>ATOM
      1 C          60.9235   87.6044   10.8441 C.ar    1  UNL1        0.0801
      2 C          60.1168   87.5351    9.5813 C.ar    1  UNL1        0.0241
      3 C          60.1381   88.6812    8.6140 C.ar    1  UNL1        0.0360
      4 BR         59.3314   88.6119    7.3512 Br      1  UNL1       -0.0490
      5 C          60.9661   89.8967    8.9093 C.ar    1  UNL1        0.0099
      6 C          61.7727   89.9660   10.1720 C.ar    1  UNL1        0.0394
      7 C          62.6768   91.0256   10.7285 C.ar    1  UNL1        0.0418
      8 C          63.2143   90.5343   12.0399 C.ar    1  UNL1        0.1593
      9 O          62.6424   89.1711   12.2939 O.2     1  UNL1       -0.4511
     10 C          61.7514   88.8198   11.1394 C.ar    1  UNL1        0.1583
     11 C          64.1580   91.2761   12.9395 C.2     1  UNL1        0.1076
     12 O          65.3822   91.9281   12.3682 O.co2   1  UNL1       -0.5415
     13 O          63.8776   91.3658   14.4103 O.co2   1  UNL1       -0.5415
     14 N          60.9021   86.4582   11.8115 N.pl3   1  UNL1       -0.3317
     15 H          60.1847   86.3938   12.4826 H       1  UNL1        0.1469
     16 N          65.1892   82.2662   11.5910 N.3     1  UNL1       -0.3222
     17 C          64.1174   83.3143   11.6461 C.3     1  UNL1        0.0509
     18 C          63.5898   83.7785   12.9713 C.3     1  UNL1        0.0172
     19 C          62.5180   84.8265   13.0265 C.3     1  UNL1        0.0208
     20 C          61.9739   85.4102   11.7564 C.3     1  UNL1        0.0692
     21 C          62.5014   84.9460   10.4311 C.3     1  UNL1        0.0208
     22 C          63.5732   83.8980   10.3760 C.3     1  UNL1        0.0172
     23 H          65.4383   81.9844   12.5391 H       1  UNL1        0.1188
     24 H          66.0117   82.6454   11.1218 H       1  UNL1        0.1188
@<TRIPOS>UNITY_ATOM_ATTR
12 1
charge -1
@<TRIPOS>BOND
     1    17    16    1
     2    17    18    1
     3    18    19    1
     4    19    20    1
     5    20    14    1
     6    14     1    1
     7     1     2   ar
     8     2     3   ar
     9     3     4    1
    10     3     5   ar
    11     5     6   ar
    12     6     7   ar
    13     7     8   ar
    14     8    11    1
    15    11    12   ar
    16    11    13   ar
    17     8     9   ar
    18     9    10   ar
    19    20    21    1
    20    21    22    1
    21    22    17    1
    22    10     1   ar
    23    10     6   ar
    24    16    23    1
    25    16    24    1
    26    14    15    1
