@<TRIPOS>MOLECULE
*****
 38 42 0 0 0
SMALL
GASTEIGER

@<TRIPOS>ATOM
      1 C          62.3302   89.8836   13.3105 C.3     1  UNL1        0.1139
      2 C          63.3052   90.7338   12.5514 C.ar    1  UNL1       -0.0029
      3 C          64.4787   91.3433   13.2595 C.ar    1  UNL1       -0.0026
      4 C          65.4538   92.1937   12.5004 C.ar    1  UNL1       -0.0003
      5 C          65.2553   92.4345   11.0332 C.ar    1  UNL1       -0.0000
      6 C          64.0818   91.8249   10.3251 C.ar    1  UNL1       -0.0003
      7 C          63.1068   90.9746   11.0842 C.ar    1  UNL1       -0.0026
      8 C          66.2304   93.2847   10.2741 C.ar    1  UNL1       -0.0000
      9 C          67.5002   92.6830    9.7493 C.ar    1  UNL1       -0.0000
     10 C          68.4753   93.5333    8.9901 C.ar    1  UNL1        0.0000
     11 C          68.1805   94.9853    8.7559 C.ar    1  UNL1        0.0000
     12 C          66.9107   95.5870    9.2808 C.ar    1  UNL1        0.0000
     13 C          65.9356   94.7367   10.0399 C.ar    1  UNL1       -0.0000
     14 C          59.8319   90.0046   12.6076 C.3     1  UNL1        0.1152
     15 N          61.1486   89.2861   12.6056 N.am    1  UNL1       -0.2729
     16 C          61.2837   87.9699   11.8987 C.2     1  UNL1        0.2465
     17 O          60.1022   87.3725   11.1938 O.2     1  UNL1       -0.2730
     18 C          62.6004   87.2514   11.8967 C.3     1  UNL1        0.1835
     19 N          62.7834   86.0233   11.0550 N.am    1  UNL1       -0.2439
     20 C          62.8660   86.1428    9.5621 C.2     1  UNL1        0.2744
     21 O          62.7657   87.4904    8.9108 O.2     1  UNL1       -0.2705
     22 C          63.0490   84.9148    8.7204 C.3     1  UNL1        0.2900
     23 O          63.1494   83.5673    9.3717 O.3     1  UNL1       -0.4643
     24 C          63.0667   83.4478   10.8646 C.ar    1  UNL1        0.1537
     25 C          63.1671   82.1003   11.5158 C.ar    1  UNL1        0.0504
     26 C          63.0844   81.9808   13.0087 C.ar    1  UNL1        0.0713
     27 CL         63.1848   80.6333   13.6600 Cl      1  UNL1       -0.0813
     28 C          62.9014   83.2088   13.8505 C.ar    1  UNL1        0.0696
     29 CL         62.8188   83.0893   15.3434 Cl      1  UNL1       -0.0813
     30 C          62.8011   84.5564   13.1992 C.ar    1  UNL1        0.0302
     31 C          62.8837   84.6758   11.7062 C.ar    1  UNL1        0.0894
     32 C          62.5367   89.6307   14.7746 C.3     1  UNL1        0.0968
     33 N          63.1621   88.3467   15.2331 N.3     1  UNL1       -0.2667
     34 C          62.6257   87.6414   16.4434 C.3     1  UNL1        0.1047
     35 C          63.2511   86.3574   16.9019 C.3     1  UNL1        0.1595
     36 O          64.4129   85.7787   16.1500 O.3     1  UNL1       -0.3508
     37 C          64.9493   86.4840   14.9397 C.3     1  UNL1        0.1595
     38 C          64.3238   87.7680   14.4812 C.3     1  UNL1        0.1047
@<TRIPOS>BOND
     1    14    15    1
     2    15    16   am
     3    16    17    2
     4    16    18    1
     5    18    19    1
     6    19    20   am
     7    20    21    2
     8    20    22    1
     9    22    23    1
    10    23    24    1
    11    24    25   ar
    12    25    26   ar
    13    26    27    1
    14    26    28   ar
    15    28    29    1
    16    28    30   ar
    17    30    31   ar
    18    15     1    1
    19     1    32    1
    20    32    33    1
    21    33    34    1
    22    34    35    1
    23    35    36    1
    24    36    37    1
    25    37    38    1
    26     1     2    1
    27     2     3   ar
    28     3     4   ar
    29     4     5   ar
    30     5     8    1
    31     8     9   ar
    32     9    10   ar
    33    10    11   ar
    34    11    12   ar
    35    12    13   ar
    36     5     6   ar
    37     6     7   ar
    38    31    19    1
    39    38    33    1
    40     7     2   ar
    41    31    24   ar
    42    13     8   ar
@<TRIPOS>MOLECULE
*****
 38 42 0 0 0
SMALL
GASTEIGER

@<TRIPOS>ATOM
      1 C          63.6469   89.4075   13.0273 C.3     1  UNL1        0.1139
      2 C          64.2811   90.6305   12.4340 C.ar    1  UNL1       -0.0029
      3 C          63.8324   91.1329   11.0939 C.ar    1  UNL1       -0.0026
      4 C          64.4666   92.3560   10.5006 C.ar    1  UNL1       -0.0003
      5 C          65.5496   93.0765   11.2475 C.ar    1  UNL1       -0.0000
      6 C          65.9984   92.5740   12.5878 C.ar    1  UNL1       -0.0003
      7 C          65.3641   91.3510   13.1810 C.ar    1  UNL1       -0.0026
      8 C          66.1838   94.2996   10.6543 C.ar    1  UNL1       -0.0000
      9 C          66.9898   94.1901    9.3940 C.ar    1  UNL1       -0.0000
     10 C          67.6241   95.4131    8.8007 C.ar    1  UNL1        0.0000
     11 C          67.4523   96.7456    9.4677 C.ar    1  UNL1        0.0000
     12 C          66.6462   96.8551   10.7281 C.ar    1  UNL1        0.0000
     13 C          66.0120   95.6321   11.3213 C.ar    1  UNL1       -0.0000
     14 C          63.1476   90.4593   15.3498 C.3     1  UNL1        0.1152
     15 N          63.5279   89.2716   14.5164 N.am    1  UNL1       -0.2729
     16 C          63.7893   87.9479   15.1720 C.2     1  UNL1        0.2465
     17 O          63.6703   87.8121   16.6611 O.2     1  UNL1       -0.2730
     18 C          64.1696   86.7603   14.3385 C.3     1  UNL1        0.1835
     19 N          63.6195   85.4046   14.6696 N.am    1  UNL1       -0.2439
     20 C          63.2262   85.0787   16.0799 C.2     1  UNL1        0.2744
     21 O          63.3829   86.1085   17.1592 O.2     1  UNL1       -0.2705
     22 C          62.6761   83.7230   16.4109 C.3     1  UNL1        0.2900
     23 O          62.5194   82.6933   15.3315 O.3     1  UNL1       -0.4643
     24 C          62.9127   83.0191   13.9212 C.ar    1  UNL1        0.1537
     25 C          62.7559   81.9893   12.8418 C.ar    1  UNL1        0.0504
     26 C          63.1492   82.3152   11.4315 C.ar    1  UNL1        0.0713
     27 CL         62.9925   81.2854   10.3522 Cl      1  UNL1       -0.0813
     28 C          63.6994   83.6709   11.1005 C.ar    1  UNL1        0.0696
     29 CL         64.0927   83.9968    9.6902 Cl      1  UNL1       -0.0813
     30 C          63.8561   84.7007   12.1798 C.ar    1  UNL1        0.0302
     31 C          63.4627   84.3748   13.5902 C.ar    1  UNL1        0.0894
     32 C          63.1317   88.3202   12.1314 C.3     1  UNL1        0.0968
     33 N          61.9903   88.5956   11.1979 N.3     1  UNL1       -0.2667
     34 C          60.9411   89.6003   11.5719 C.3     1  UNL1        0.1047
     35 C          59.7998   89.8757   10.6384 C.3     1  UNL1        0.1595
     36 O          59.7076   89.1464    9.3308 O.3     1  UNL1       -0.3508
     37 C          60.7568   88.1418    8.9568 C.3     1  UNL1        0.1595
     38 C          61.8981   87.8664    9.8903 C.3     1  UNL1        0.1047
@<TRIPOS>BOND
     1    14    15    1
     2    15    16   am
     3    16    17    2
     4    16    18    1
     5    18    19    1
     6    19    20   am
     7    20    21    2
     8    20    22    1
     9    22    23    1
    10    23    24    1
    11    24    25   ar
    12    25    26   ar
    13    26    27    1
    14    26    28   ar
    15    28    29    1
    16    28    30   ar
    17    30    31   ar
    18    15     1    1
    19     1    32    1
    20    32    33    1
    21    33    34    1
    22    34    35    1
    23    35    36    1
    24    36    37    1
    25    37    38    1
    26     1     2    1
    27     2     3   ar
    28     3     4   ar
    29     4     5   ar
    30     5     8    1
    31     8     9   ar
    32     9    10   ar
    33    10    11   ar
    34    11    12   ar
    35    12    13   ar
    36     5     6   ar
    37     6     7   ar
    38    31    19    1
    39    38    33    1
    40     7     2   ar
    41    31    24   ar
    42    13     8   ar
@<TRIPOS>MOLECULE
*****
 38 42 0 0 0
SMALL
GASTEIGER

@<TRIPOS>ATOM
      1 C          63.7888   88.2880   14.5505 C.3     1  UNL1        0.1139
      2 C          63.0394   88.2252   13.2527 C.ar    1  UNL1       -0.0029
      3 C          62.9691   86.9362   12.4889 C.ar    1  UNL1       -0.0026
      4 C          62.2196   86.8734   11.1910 C.ar    1  UNL1       -0.0003
      5 C          61.5404   88.0996   10.6570 C.ar    1  UNL1       -0.0000
      6 C          61.6108   89.3887   11.4209 C.ar    1  UNL1       -0.0003
      7 C          62.3602   89.4514   12.7187 C.ar    1  UNL1       -0.0026
      8 C          60.7910   88.0369    9.3592 C.ar    1  UNL1       -0.0000
      9 C          60.3927   89.3034    8.6612 C.ar    1  UNL1       -0.0000
     10 C          59.6432   89.2407    7.3633 C.ar    1  UNL1        0.0000
     11 C          59.2920   87.9114    6.7636 C.ar    1  UNL1        0.0000
     12 C          59.6903   86.6448    7.4617 C.ar    1  UNL1        0.0000
     13 C          60.4398   86.7076    8.7595 C.ar    1  UNL1       -0.0000
     14 C          62.2636   89.2801   16.4050 C.3     1  UNL1        0.1152
     15 N          63.4854   89.3737   15.5400 N.am    1  UNL1       -0.2729
     16 C          64.4040   90.5530   15.6646 C.2     1  UNL1        0.2465
     17 O          64.1006   91.6387   16.6541 O.2     1  UNL1       -0.2730
     18 C          65.6259   90.6466   14.7996 C.3     1  UNL1        0.1835
     19 N          66.2595   91.9810   14.5384 N.am    1  UNL1       -0.2439
     20 C          67.1694   92.5925   15.5621 C.2     1  UNL1        0.2744
     21 O          67.4458   91.8697   16.8471 O.2     1  UNL1       -0.2705
     22 C          67.8029   93.9267   15.3008 C.3     1  UNL1        0.2900
     23 O          67.5266   94.6495   14.0158 O.3     1  UNL1       -0.4643
     24 C          66.6167   94.0380   12.9921 C.ar    1  UNL1        0.1537
     25 C          66.3403   94.7608   11.7071 C.ar    1  UNL1        0.0504
     26 C          65.4304   94.1493   10.6834 C.ar    1  UNL1        0.0713
     27 CL         65.1541   94.8720    9.3984 Cl      1  UNL1       -0.0813
     28 C          64.7968   92.8149   10.9446 C.ar    1  UNL1        0.0696
     29 CL         63.8869   92.2034    9.9208 Cl      1  UNL1       -0.0813
     30 C          65.0732   92.0922   12.2296 C.ar    1  UNL1        0.0302
     31 C          65.9831   92.7037   13.2534 C.ar    1  UNL1        0.0894
     32 C          64.8417   87.2650   14.8588 C.3     1  UNL1        0.0968
     33 N          64.4631   85.8217   15.0119 N.3     1  UNL1       -0.2667
     34 C          63.3326   85.4350   15.9190 C.3     1  UNL1        0.1047
     35 C          62.9539   83.9917   16.0722 C.3     1  UNL1        0.1595
     36 O          63.7057   82.9350   15.3182 O.3     1  UNL1       -0.3508
     37 C          64.8361   83.3217   14.4112 C.3     1  UNL1        0.1595
     38 C          65.2148   84.7650   14.2581 C.3     1  UNL1        0.1047
@<TRIPOS>BOND
     1    14    15    1
     2    15    16   am
     3    16    17    2
     4    16    18    1
     5    18    19    1
     6    19    20   am
     7    20    21    2
     8    20    22    1
     9    22    23    1
    10    23    24    1
    11    24    25   ar
    12    25    26   ar
    13    26    27    1
    14    26    28   ar
    15    28    29    1
    16    28    30   ar
    17    30    31   ar
    18    15     1    1
    19     1    32    1
    20    32    33    1
    21    33    34    1
    22    34    35    1
    23    35    36    1
    24    36    37    1
    25    37    38    1
    26     1     2    1
    27     2     3   ar
    28     3     4   ar
    29     4     5   ar
    30     5     8    1
    31     8     9   ar
    32     9    10   ar
    33    10    11   ar
    34    11    12   ar
    35    12    13   ar
    36     5     6   ar
    37     6     7   ar
    38    31    19    1
    39    38    33    1
    40     7     2   ar
    41    31    24   ar
    42    13     8   ar
@<TRIPOS>MOLECULE
*****
 38 42 0 0 0
SMALL
GASTEIGER

@<TRIPOS>ATOM
      1 C          63.8260   89.6643   13.7198 C.3     1  UNL1        0.1139
      2 C          64.4345   90.8234   12.9874 C.ar    1  UNL1       -0.0029
      3 C          65.5017   91.6482   13.6435 C.ar    1  UNL1       -0.0026
      4 C          66.1102   92.8073   12.9112 C.ar    1  UNL1       -0.0003
      5 C          65.6514   93.1415   11.5227 C.ar    1  UNL1       -0.0000
      6 C          64.5841   92.3166   10.8666 C.ar    1  UNL1       -0.0003
      7 C          63.9757   91.1575   11.5989 C.ar    1  UNL1       -0.0026
      8 C          66.2599   94.3005   10.7904 C.ar    1  UNL1       -0.0000
      9 C          66.0655   95.6968   11.3027 C.ar    1  UNL1       -0.0000
     10 C          66.6740   96.8560   10.5703 C.ar    1  UNL1        0.0000
     11 C          67.4768   96.6187    9.3256 C.ar    1  UNL1        0.0000
     12 C          67.6712   95.2223    8.8133 C.ar    1  UNL1        0.0000
     13 C          67.0627   94.0633    9.5457 C.ar    1  UNL1       -0.0000
     14 C          61.7111   89.8650   15.2153 C.3     1  UNL1        0.1152
     15 N          62.3374   89.5782   13.8829 N.am    1  UNL1       -0.2729
     16 C          61.4752   89.2052   12.7134 C.2     1  UNL1        0.2465
     17 O          59.9865   89.1191   12.8765 O.2     1  UNL1       -0.2730
     18 C          62.1015   88.9184   11.3810 C.3     1  UNL1        0.1835
     19 N          61.2404   88.7899   10.1595 N.am    1  UNL1       -0.2439
     20 C          60.2314   89.8522    9.8380 C.2     1  UNL1        0.2744
     21 O          60.0835   91.0431   10.7380 O.2     1  UNL1       -0.2705
     22 C          59.3704   89.7237    8.6166 C.3     1  UNL1        0.2900
     23 O          59.5182   88.5328    7.7166 O.3     1  UNL1       -0.4643
     24 C          60.5272   87.4705    8.0381 C.ar    1  UNL1        0.1537
     25 C          60.6751   86.2796    7.1381 C.ar    1  UNL1        0.0504
     26 C          61.6841   85.2173    7.4596 C.ar    1  UNL1        0.0713
     27 CL         61.8320   84.0264    6.5596 Cl      1  UNL1       -0.0813
     28 C          62.5452   85.3458    8.6811 C.ar    1  UNL1        0.0696
     29 CL         63.5542   84.2834    9.0026 Cl      1  UNL1       -0.0813
     30 C          62.3973   86.5367    9.5811 C.ar    1  UNL1        0.0302
     31 C          61.3883   87.5990    9.2595 C.ar    1  UNL1        0.0894
     32 C          64.7062   88.5913   14.2891 C.3     1  UNL1        0.0968
     33 N          64.1340   87.2414   14.6057 N.3     1  UNL1       -0.2667
     34 C          63.7967   86.8833   16.0228 C.3     1  UNL1        0.1047
     35 C          63.2244   85.5334   16.3393 C.3     1  UNL1        0.1595
     36 O          62.9895   84.5416   15.2388 O.3     1  UNL1       -0.3508
     37 C          63.3267   84.8997   13.8218 C.3     1  UNL1        0.1595
     38 C          63.8990   86.2496   13.5052 C.3     1  UNL1        0.1047
@<TRIPOS>BOND
     1    14    15    1
     2    15    16   am
     3    16    17    2
     4    16    18    1
     5    18    19    1
     6    19    20   am
     7    20    21    2
     8    20    22    1
     9    22    23    1
    10    23    24    1
    11    24    25   ar
    12    25    26   ar
    13    26    27    1
    14    26    28   ar
    15    28    29    1
    16    28    30   ar
    17    30    31   ar
    18    15     1    1
    19     1    32    1
    20    32    33    1
    21    33    34    1
    22    34    35    1
    23    35    36    1
    24    36    37    1
    25    37    38    1
    26     1     2    1
    27     2     3   ar
    28     3     4   ar
    29     4     5   ar
    30     5     8    1
    31     8     9   ar
    32     9    10   ar
    33    10    11   ar
    34    11    12   ar
    35    12    13   ar
    36     5     6   ar
    37     6     7   ar
    38    31    19    1
    39    38    33    1
    40     7     2   ar
    41    31    24   ar
    42    13     8   ar
@<TRIPOS>MOLECULE
*****
 38 42 0 0 0
SMALL
GASTEIGER

@<TRIPOS>ATOM
      1 C          63.2997   94.2632   -2.4420 C.3     1  UNL1        0.1139
      2 C          62.6797   93.7812   -1.1641 C.ar    1  UNL1       -0.0029
      3 C          61.4493   92.9242   -1.2040 C.ar    1  UNL1       -0.0026
      4 C          60.8293   92.4422    0.0741 C.ar    1  UNL1       -0.0003
      5 C          61.4397   92.8171    1.3919 C.ar    1  UNL1       -0.0000
      6 C          62.6702   93.6741    1.4318 C.ar    1  UNL1       -0.0003
      7 C          63.2902   94.1562    0.1538 C.ar    1  UNL1       -0.0026
      8 C          60.8198   92.3351    2.6699 C.ar    1  UNL1       -0.0000
      9 C          61.6463   91.5751    3.6645 C.ar    1  UNL1       -0.0000
     10 C          61.0264   91.0931    4.9425 C.ar    1  UNL1        0.0000
     11 C          59.5798   91.3710    5.2259 C.ar    1  UNL1        0.0000
     12 C          58.7533   92.1309    4.2312 C.ar    1  UNL1        0.0000
     13 C          59.3732   92.6130    2.9533 C.ar    1  UNL1       -0.0000
     14 C          63.4694   96.8502   -2.6110 C.3     1  UNL1        0.1152
     15 N          62.8498   95.5575   -3.0524 N.am    1  UNL1       -0.2729
     16 C          61.7803   95.5589   -4.1042 C.2     1  UNL1        0.2465
     17 O          61.3305   96.8532   -4.7146 O.2     1  UNL1       -0.2730
     18 C          61.1608   94.2662   -4.5456 C.3     1  UNL1        0.1835
     19 N          59.8065   94.2652   -5.1908 N.am    1  UNL1       -0.2439
     20 C          59.6873   94.3375   -6.6842 C.2     1  UNL1        0.2744
     21 O          60.9221   94.4107   -7.5326 O.2     1  UNL1       -0.2705
     22 C          58.3331   94.3366   -7.3293 C.3     1  UNL1        0.2900
     23 O          57.0982   94.2633   -6.4810 O.3     1  UNL1       -0.4643
     24 C          57.2175   94.1910   -4.9875 C.ar    1  UNL1        0.1537
     25 C          55.9826   94.1178   -4.1391 C.ar    1  UNL1        0.0504
     26 C          56.1019   94.0455   -2.6457 C.ar    1  UNL1        0.0713
     27 CL         54.8671   93.9723   -1.7973 Cl      1  UNL1       -0.0813
     28 C          57.4561   94.0465   -2.0005 C.ar    1  UNL1        0.0696
     29 CL         57.5754   93.9742   -0.5070 Cl      1  UNL1       -0.0813
     30 C          58.6910   94.1197   -2.8489 C.ar    1  UNL1        0.0302
     31 C          58.5717   94.1920   -4.3424 C.ar    1  UNL1        0.0894
     32 C          64.3696   93.4510   -3.1097 C.3     1  UNL1        0.0968
     33 N          64.5756   93.5556   -4.5918 N.3     1  UNL1       -0.2667
     34 C          65.2053   94.7852   -5.1765 C.3     1  UNL1        0.1047
     35 C          65.4113   94.8898   -6.6586 C.3     1  UNL1        0.1595
     36 O          64.9877   93.7649   -7.5560 O.3     1  UNL1       -0.3508
     37 C          64.3580   92.5354   -6.9712 C.3     1  UNL1        0.1595
     38 C          64.1520   92.4308   -5.4891 C.3     1  UNL1        0.1047
@<TRIPOS>BOND
     1    14    15    1
     2    15    16   am
     3    16    17    2
     4    16    18    1
     5    18    19    1
     6    19    20   am
     7    20    21    2
     8    20    22    1
     9    22    23    1
    10    23    24    1
    11    24    25   ar
    12    25    26   ar
    13    26    27    1
    14    26    28   ar
    15    28    29    1
    16    28    30   ar
    17    30    31   ar
    18    15     1    1
    19     1    32    1
    20    32    33    1
    21    33    34    1
    22    34    35    1
    23    35    36    1
    24    36    37    1
    25    37    38    1
    26     1     2    1
    27     2     3   ar
    28     3     4   ar
    29     4     5   ar
    30     5     8    1
    31     8     9   ar
    32     9    10   ar
    33    10    11   ar
    34    11    12   ar
    35    12    13   ar
    36     5     6   ar
    37     6     7   ar
    38    31    19    1
    39    38    33    1
    40     7     2   ar
    41    31    24   ar
    42    13     8   ar
@<TRIPOS>MOLECULE
*****
 38 42 0 0 0
SMALL
GASTEIGER

@<TRIPOS>ATOM
      1 C          62.8834   89.7176   12.6781 C.3     1  UNL1        0.1139
      2 C          63.6759   90.8582   12.1115 C.ar    1  UNL1       -0.0029
      3 C          64.5922   91.6483   12.9981 C.ar    1  UNL1       -0.0026
      4 C          65.3848   92.7889   12.4315 C.ar    1  UNL1       -0.0003
      5 C          65.2610   93.1393   10.9783 C.ar    1  UNL1       -0.0000
      6 C          64.3447   92.3491   10.0917 C.ar    1  UNL1       -0.0003
      7 C          63.5522   91.2086   10.6583 C.ar    1  UNL1       -0.0026
      8 C          66.0535   94.2799   10.4117 C.ar    1  UNL1       -0.0000
      9 C          66.9565   94.0543    9.2355 C.ar    1  UNL1       -0.0000
     10 C          67.7491   95.1949    8.6688 C.ar    1  UNL1        0.0000
     11 C          67.6385   96.5610    9.2785 C.ar    1  UNL1        0.0000
     12 C          66.7354   96.7865   10.4548 C.ar    1  UNL1        0.0000
     13 C          65.9429   95.6459   11.0214 C.ar    1  UNL1       -0.0000
     14 C          64.4691   88.9770   14.5983 C.3     1  UNL1        0.1152
     15 N          63.5767   88.6299   13.4437 N.am    1  UNL1       -0.2729
     16 C          63.3776   87.1949   13.0547 C.2     1  UNL1        0.2465
     17 O          64.0709   86.1072   13.8203 O.2     1  UNL1       -0.2730
     18 C          62.4852   86.8477   11.9001 C.3     1  UNL1        0.1835
     19 N          62.7682   85.6283   11.0737 N.am    1  UNL1       -0.2439
     20 C          63.0027   85.7601    9.5980 C.2     1  UNL1        0.2744
     21 O          62.9544   87.1115    8.9487 O.2     1  UNL1       -0.2705
     22 C          63.2857   84.5407    8.7717 C.3     1  UNL1        0.2900
     23 O          63.3341   83.1894    9.4210 O.3     1  UNL1       -0.4643
     24 C          63.0995   83.0575   10.8966 C.ar    1  UNL1        0.1537
     25 C          63.1479   81.7062   11.5459 C.ar    1  UNL1        0.0504
     26 C          62.9133   81.5743   13.0216 C.ar    1  UNL1        0.0713
     27 CL         62.9617   80.2230   13.6709 Cl      1  UNL1       -0.0813
     28 C          62.6303   82.7938   13.8480 C.ar    1  UNL1        0.0696
     29 CL         62.3958   82.6619   15.3236 Cl      1  UNL1       -0.0813
     30 C          62.5820   84.1451   13.1987 C.ar    1  UNL1        0.0302
     31 C          62.8166   84.2769   11.7230 C.ar    1  UNL1        0.0894
     32 C          61.3976   89.6648   12.4791 C.3     1  UNL1        0.0968
     33 N          60.8326   89.2190   11.1630 N.3     1  UNL1       -0.2667
     34 C          60.1336   87.8961   11.0564 C.3     1  UNL1        0.1047
     35 C          59.5685   87.4503    9.7403 C.3     1  UNL1        0.1595
     36 O          59.7025   88.3275    8.5309 O.3     1  UNL1       -0.3508
     37 C          60.4015   89.6503    8.6375 C.3     1  UNL1        0.1595
     38 C          60.9665   90.0961    9.9536 C.3     1  UNL1        0.1047
@<TRIPOS>BOND
     1    14    15    1
     2    15    16   am
     3    16    17    2
     4    16    18    1
     5    18    19    1
     6    19    20   am
     7    20    21    2
     8    20    22    1
     9    22    23    1
    10    23    24    1
    11    24    25   ar
    12    25    26   ar
    13    26    27    1
    14    26    28   ar
    15    28    29    1
    16    28    30   ar
    17    30    31   ar
    18    15     1    1
    19     1    32    1
    20    32    33    1
    21    33    34    1
    22    34    35    1
    23    35    36    1
    24    36    37    1
    25    37    38    1
    26     1     2    1
    27     2     3   ar
    28     3     4   ar
    29     4     5   ar
    30     5     8    1
    31     8     9   ar
    32     9    10   ar
    33    10    11   ar
    34    11    12   ar
    35    12    13   ar
    36     5     6   ar
    37     6     7   ar
    38    31    19    1
    39    38    33    1
    40     7     2   ar
    41    31    24   ar
    42    13     8   ar
@<TRIPOS>MOLECULE
*****
 38 42 0 0 0
SMALL
GASTEIGER

@<TRIPOS>ATOM
      1 C          63.6603   89.7389   13.8767 C.3     1  UNL1        0.1139
      2 C          64.3081   90.8643   13.1260 C.ar    1  UNL1       -0.0029
      3 C          65.3421   91.7175   13.7989 C.ar    1  UNL1       -0.0026
      4 C          65.9900   92.8430   13.0481 C.ar    1  UNL1       -0.0003
      5 C          65.6039   93.1153   11.6245 C.ar    1  UNL1       -0.0000
      6 C          64.5698   92.2620   10.9516 C.ar    1  UNL1       -0.0003
      7 C          63.9220   91.1366   11.7023 C.ar    1  UNL1       -0.0026
      8 C          66.2517   94.2407   10.8738 C.ar    1  UNL1       -0.0000
      9 C          67.0815   93.9516    9.6581 C.ar    1  UNL1       -0.0000
     10 C          67.7294   95.0771    8.9073 C.ar    1  UNL1        0.0000
     11 C          67.5475   96.4916    9.3722 C.ar    1  UNL1        0.0000
     12 C          66.7177   96.7806   10.5879 C.ar    1  UNL1        0.0000
     13 C          66.0698   95.6552   11.3387 C.ar    1  UNL1       -0.0000
     14 C          61.4331   89.8701   15.2081 C.3     1  UNL1        0.1152
     15 N          62.1649   89.6296   13.9210 N.am    1  UNL1       -0.2729
     16 C          61.4013   89.2799   12.6781 C.2     1  UNL1        0.2465
     17 O          59.9060   89.1706   12.7224 O.2     1  UNL1       -0.2730
     18 C          62.1331   89.0394   11.3910 C.3     1  UNL1        0.1835
     19 N          61.6600   87.9740   10.4470 N.am    1  UNL1       -0.2439
     20 C          60.7616   88.3328    9.3007 C.2     1  UNL1        0.2744
     21 O          60.3363   89.7569    9.0983 O.2     1  UNL1       -0.2705
     22 C          60.2885   87.2674    8.3567 C.3     1  UNL1        0.2900
     23 O          60.7138   85.8433    8.5591 O.3     1  UNL1       -0.4643
     24 C          61.6122   85.4845    9.7054 C.ar    1  UNL1        0.1537
     25 C          62.0375   84.0604    9.9078 C.ar    1  UNL1        0.0504
     26 C          62.9359   83.7016   11.0541 C.ar    1  UNL1        0.0713
     27 CL         63.3612   82.2775   11.2565 Cl      1  UNL1       -0.0813
     28 C          63.4091   84.7670   11.9982 C.ar    1  UNL1        0.0696
     29 CL         64.3074   84.4083   13.1445 Cl      1  UNL1       -0.0813
     30 C          62.9837   86.1912   11.7958 C.ar    1  UNL1        0.0302
     31 C          62.0853   86.5499   10.6494 C.ar    1  UNL1        0.0894
     32 C          64.5078   88.7227   14.5832 C.3     1  UNL1        0.0968
     33 N          63.8908   87.8068   15.5984 N.3     1  UNL1       -0.2667
     34 C          63.2774   88.3731   16.8447 C.3     1  UNL1        0.1047
     35 C          62.6604   87.4573   17.8599 C.3     1  UNL1        0.1595
     36 O          62.6568   85.9752   17.6287 O.3     1  UNL1       -0.3508
     37 C          63.2701   85.4089   16.3824 C.3     1  UNL1        0.1595
     38 C          63.8871   86.3248   15.3673 C.3     1  UNL1        0.1047
@<TRIPOS>BOND
     1    14    15    1
     2    15    16   am
     3    16    17    2
     4    16    18    1
     5    18    19    1
     6    19    20   am
     7    20    21    2
     8    20    22    1
     9    22    23    1
    10    23    24    1
    11    24    25   ar
    12    25    26   ar
    13    26    27    1
    14    26    28   ar
    15    28    29    1
    16    28    30   ar
    17    30    31   ar
    18    15     1    1
    19     1    32    1
    20    32    33    1
    21    33    34    1
    22    34    35    1
    23    35    36    1
    24    36    37    1
    25    37    38    1
    26     1     2    1
    27     2     3   ar
    28     3     4   ar
    29     4     5   ar
    30     5     8    1
    31     8     9   ar
    32     9    10   ar
    33    10    11   ar
    34    11    12   ar
    35    12    13   ar
    36     5     6   ar
    37     6     7   ar
    38    31    19    1
    39    38    33    1
    40     7     2   ar
    41    31    24   ar
    42    13     8   ar
@<TRIPOS>MOLECULE
*****
 38 42 0 0 0
SMALL
GASTEIGER

@<TRIPOS>ATOM
      1 C          62.4670   94.2596   -0.7175 C.3     1  UNL1        0.1139
      2 C          61.7835   93.6120    0.4501 C.ar    1  UNL1       -0.0029
      3 C          60.2926   93.6992    0.5893 C.ar    1  UNL1       -0.0026
      4 C          59.6091   93.0515    1.7569 C.ar    1  UNL1       -0.0003
      5 C          60.4166   92.3165    2.7854 C.ar    1  UNL1       -0.0000
      6 C          61.9076   92.2293    2.6463 C.ar    1  UNL1       -0.0003
      7 C          62.5911   92.8770    1.4786 C.ar    1  UNL1       -0.0026
      8 C          59.7332   91.6688    3.9530 C.ar    1  UNL1       -0.0000
      9 C          60.5152   90.7981    4.8912 C.ar    1  UNL1       -0.0000
     10 C          59.8318   90.1504    6.0589 C.ar    1  UNL1        0.0000
     11 C          58.3663   90.3734    6.2884 C.ar    1  UNL1        0.0000
     12 C          57.5843   91.2442    5.3501 C.ar    1  UNL1        0.0000
     13 C          58.2677   91.8919    4.1825 C.ar    1  UNL1       -0.0000
     14 C          62.3714   96.8559   -0.7364 C.3     1  UNL1        0.1152
     15 N          61.9249   95.5355   -1.2906 N.am    1  UNL1       -0.2729
     16 C          60.9362   95.4908   -2.4178 C.2     1  UNL1        0.2465
     17 O          60.3941   96.7666   -2.9909 O.2     1  UNL1       -0.2730
     18 C          60.4897   94.1704   -2.9720 C.3     1  UNL1        0.1835
     19 N          59.9282   94.0910   -4.3607 N.am    1  UNL1       -0.2439
     20 C          60.6164   94.7996   -5.4895 C.2     1  UNL1        0.2744
     21 O          61.8661   95.5875   -5.2298 O.2     1  UNL1       -0.2705
     22 C          60.0549   94.7202   -6.8782 C.3     1  UNL1        0.2900
     23 O          58.8052   93.9323   -7.1380 O.3     1  UNL1       -0.4643
     24 C          58.1171   93.2237   -6.0091 C.ar    1  UNL1        0.1537
     25 C          56.8674   92.4358   -6.2689 C.ar    1  UNL1        0.0504
     26 C          56.1792   91.7272   -5.1401 C.ar    1  UNL1        0.0713
     27 CL         54.9296   90.9393   -5.3998 Cl      1  UNL1       -0.0813
     28 C          56.7407   91.8066   -3.7513 C.ar    1  UNL1        0.0696
     29 CL         56.0526   91.0980   -2.6225 Cl      1  UNL1       -0.0813
     30 C          57.9904   92.5945   -3.4915 C.ar    1  UNL1        0.0302
     31 C          58.6786   93.3031   -4.6205 C.ar    1  UNL1        0.0894
     32 C          63.6926   93.6315   -1.3121 C.3     1  UNL1        0.0968
     33 N          64.0375   93.8758   -2.7513 N.3     1  UNL1       -0.2667
     34 C          64.6711   95.1723   -3.1610 C.3     1  UNL1        0.1047
     35 C          65.0160   95.4166   -4.6003 C.3     1  UNL1        0.1595
     36 O          64.7272   94.3644   -5.6297 O.3     1  UNL1       -0.3508
     37 C          64.0936   93.0681   -5.2200 C.3     1  UNL1        0.1595
     38 C          63.7488   92.8238   -3.7807 C.3     1  UNL1        0.1047
@<TRIPOS>BOND
     1    14    15    1
     2    15    16   am
     3    16    17    2
     4    16    18    1
     5    18    19    1
     6    19    20   am
     7    20    21    2
     8    20    22    1
     9    22    23    1
    10    23    24    1
    11    24    25   ar
    12    25    26   ar
    13    26    27    1
    14    26    28   ar
    15    28    29    1
    16    28    30   ar
    17    30    31   ar
    18    15     1    1
    19     1    32    1
    20    32    33    1
    21    33    34    1
    22    34    35    1
    23    35    36    1
    24    36    37    1
    25    37    38    1
    26     1     2    1
    27     2     3   ar
    28     3     4   ar
    29     4     5   ar
    30     5     8    1
    31     8     9   ar
    32     9    10   ar
    33    10    11   ar
    34    11    12   ar
    35    12    13   ar
    36     5     6   ar
    37     6     7   ar
    38    31    19    1
    39    38    33    1
    40     7     2   ar
    41    31    24   ar
    42    13     8   ar
@<TRIPOS>MOLECULE
*****
 38 42 0 0 0
SMALL
GASTEIGER

@<TRIPOS>ATOM
      1 C          63.8061   90.2445   13.2992 C.3     1  UNL1        0.1139
      2 C          63.7396   88.7466   13.3421 C.ar    1  UNL1       -0.0029
      3 C          63.1279   87.9901   12.2004 C.ar    1  UNL1       -0.0026
      4 C          63.0615   86.4921   12.2432 C.ar    1  UNL1       -0.0003
      5 C          63.6068   85.7508   13.4276 C.ar    1  UNL1       -0.0000
      6 C          64.2186   86.5073   14.5693 C.ar    1  UNL1       -0.0003
      7 C          64.2850   88.0052   14.5265 C.ar    1  UNL1       -0.0026
      8 C          63.5404   84.2529   13.4705 C.ar    1  UNL1       -0.0000
      9 C          64.3274   83.4389   12.4866 C.ar    1  UNL1       -0.0000
     10 C          64.2610   81.9409   12.5294 C.ar    1  UNL1        0.0000
     11 C          63.4076   81.2570   13.5561 C.ar    1  UNL1        0.0000
     12 C          62.6206   82.0711   14.5399 C.ar    1  UNL1        0.0000
     13 C          62.6870   83.5690   14.4971 C.ar    1  UNL1       -0.0000
     14 C          64.5776   90.4447   15.7720 C.3     1  UNL1        0.1152
     15 N          64.5315   90.9942   14.3771 N.am    1  UNL1       -0.2729
     16 C          65.2107   92.2935   14.0600 C.2     1  UNL1        0.2465
     17 O          65.9361   93.0432   15.1378 O.2     1  UNL1       -0.2730
     18 C          65.1645   92.8431   12.6650 C.3     1  UNL1        0.1835
     19 N          66.4069   92.8613   11.8246 N.am    1  UNL1       -0.2439
     20 C          67.5097   91.8812   12.0949 C.2     1  UNL1        0.2744
     21 O          67.3703   90.8829   13.2057 O.2     1  UNL1       -0.2705
     22 C          68.7520   91.8995   11.2545 C.3     1  UNL1        0.2900
     23 O          68.8914   92.8978   10.1437 O.3     1  UNL1       -0.4643
     24 C          67.7885   93.8779    9.8733 C.ar    1  UNL1        0.1537
     25 C          67.9279   94.8762    8.7625 C.ar    1  UNL1        0.0504
     26 C          66.8251   95.8563    8.4922 C.ar    1  UNL1        0.0713
     27 CL         66.9645   96.8547    7.3814 Cl      1  UNL1       -0.0813
     28 C          65.5827   95.8381    9.3326 C.ar    1  UNL1        0.0696
     29 CL         64.4799   96.8182    9.0623 Cl      1  UNL1       -0.0813
     30 C          65.4433   94.8397   10.4434 C.ar    1  UNL1        0.0302
     31 C          66.5463   93.8596   10.7138 C.ar    1  UNL1        0.0894
     32 C          63.1470   90.9928   12.1786 C.3     1  UNL1        0.0968
     33 N          61.9708   90.3935   11.4663 N.3     1  UNL1       -0.2667
     34 C          62.0835   90.0151   10.0191 C.3     1  UNL1        0.1047
     35 C          60.9073   89.4159    9.3068 C.3     1  UNL1        0.1595
     36 O          59.6184   89.1950   10.0417 O.3     1  UNL1       -0.3508
     37 C          59.5057   89.5733   11.4888 C.3     1  UNL1        0.1595
     38 C          60.6820   90.1726   12.2011 C.3     1  UNL1        0.1047
@<TRIPOS>BOND
     1    14    15    1
     2    15    16   am
     3    16    17    2
     4    16    18    1
     5    18    19    1
     6    19    20   am
     7    20    21    2
     8    20    22    1
     9    22    23    1
    10    23    24    1
    11    24    25   ar
    12    25    26   ar
    13    26    27    1
    14    26    28   ar
    15    28    29    1
    16    28    30   ar
    17    30    31   ar
    18    15     1    1
    19     1    32    1
    20    32    33    1
    21    33    34    1
    22    34    35    1
    23    35    36    1
    24    36    37    1
    25    37    38    1
    26     1     2    1
    27     2     3   ar
    28     3     4   ar
    29     4     5   ar
    30     5     8    1
    31     8     9   ar
    32     9    10   ar
    33    10    11   ar
    34    11    12   ar
    35    12    13   ar
    36     5     6   ar
    37     6     7   ar
    38    31    19    1
    39    38    33    1
    40     7     2   ar
    41    31    24   ar
    42    13     8   ar
