@<TRIPOS>MOLECULE
*****
 40 41 0 0 0
SMALL
GASTEIGER

@<TRIPOS>ATOM
      1 C          61.4084   87.6633   10.0535 C.2     1  UNL1        0.2403
      2 O          60.1323   88.1552   10.6698 O.2     1  UNL1       -0.2733
      3 N          62.6764   88.4452   10.2296 N.am    1  UNL1       -0.3046
      4 H          63.5139   88.1224    9.8251 H       1  UNL1        0.1494
      5 C          62.6683   89.7188   11.0220 C.3     1  UNL1        0.0717
      6 C          62.7128   91.0415   10.3160 C.3     1  UNL1        0.0213
      7 C          62.6158   89.6697   12.5202 C.3     1  UNL1        0.0213
      8 C          63.8873   89.6778   13.3160 C.3     1  UNL1        0.0214
      9 C          64.4042   90.9632   13.8907 C.3     1  UNL1        0.0749
     10 C          64.2716   91.2349   15.3599 C.3     1  UNL1        0.0214
     11 N          65.0538   91.9771   12.9962 N.am    1  UNL1       -0.2723
     12 C          66.5193   92.2673   13.1314 C.2     1  UNL1        0.4019
     13 O          67.3352   91.5434   14.1613 O.2     1  UNL1       -0.2264
     14 H          64.5183   92.4521   12.3203 H       1  UNL1        0.1527
     15 O          67.1689   93.2811   12.2369 O.3     1  UNL1       -0.4291
     16 C          66.3896   94.4720   11.7630 C.3     1  UNL1        0.2447
     17 C          66.7631   95.1497   10.4781 C.ar    1  UNL1        0.0714
     18 C          67.2863   94.4746    9.2450 C.ar    1  UNL1        0.1053
     19 N          67.5256   95.5291    8.2053 N.ar    1  UNL1       -0.2350
     20 C          67.1502   96.8559    8.7959 C.ar    1  UNL1        0.1343
     21 S          66.6790   96.6214   10.2005 S.2     1  UNL1       -0.0652
     22 C          61.4164   86.3897    9.2612 C.3     1  UNL1        0.1496
     23 N          63.2045   83.7339   11.6063 N.am    1  UNL1       -0.2567
     24 C          63.9622   82.9269   10.5943 C.3     1  UNL1        0.1168
     25 C          62.3558   84.8882   11.1620 C.2     1  UNL1        0.3046
     26 O          61.5980   85.6953   12.1741 O.2     1  UNL1       -0.2526
     27 N          62.2650   85.2354    9.7056 N.am    1  UNL1       -0.2824
     28 H          62.7624   84.7057    9.0414 H       1  UNL1        0.1514
     29 C          63.2953   83.3867   13.0628 C.3     1  UNL1        0.1413
     30 C          63.6231   86.0768   15.8415 C.ar    1  UNL1        0.0875
     31 N          62.7992   85.1061   15.0483 N.ar    1  UNL1       -0.2453
     32 C          63.7026   84.4316   14.0589 C.ar    1  UNL1        0.0858
     33 C          65.0847   84.9853   14.2406 C.ar    1  UNL1        0.0530
     34 S          65.0356   86.0021   15.3423 S.2     1  UNL1       -0.0705
     35 C          63.0855   88.4527   16.7449 C.3     1  UNL1        0.0069
     36 C          63.1223   86.9660   16.9408 C.3     1  UNL1        0.0465
     37 C          62.6584   86.3686   18.2361 C.3     1  UNL1        0.0069
     38 C          60.5760   86.2704    8.0246 C.3     1  UNL1        0.0270
     39 C          60.9416   85.2766    6.9623 C.3     1  UNL1        0.0022
     40 C          59.3699   87.1450    7.8502 C.3     1  UNL1        0.0022
@<TRIPOS>BOND
     1    35    36    1
     2    36    37    1
     3    36    30    1
     4    30    31   ar
     5    31    32   ar
     6    32    29    1
     7    29    23    1
     8    23    24    1
     9    23    25   am
    10    25    26    2
    11    25    27   am
    12    22    27    1
    13    22     1    1
    14     1     2    2
    15     1     3   am
    16     3     5    1
    17     5     6    1
    18     5     7    1
    19     7     8    1
    20     8     9    1
    21     9    10    1
    22     9    11    1
    23    11    12   am
    24    12    13    2
    25    12    15    1
    26    15    16    1
    27    16    17    1
    28    17    18   ar
    29    18    19   ar
    30    19    20   ar
    31    20    21   ar
    32    22    38    1
    33    38    39    1
    34    38    40    1
    35    32    33   ar
    36    33    34   ar
    37    34    30   ar
    38    21    17   ar
    39    27    28    1
    40     3     4    1
    41    11    14    1
@<TRIPOS>MOLECULE
*****
 40 41 0 0 0
SMALL
GASTEIGER

@<TRIPOS>ATOM
      1 C          63.8406   84.1719   13.8176 C.2     1  UNL1        0.2403
      2 O          65.2487   83.9574   14.2881 O.2     1  UNL1       -0.2733
      3 N          63.0068   85.2638   14.4197 N.am    1  UNL1       -0.3046
      4 H          62.0826   85.4046   14.1109 H       1  UNL1        0.1494
      5 C          63.5810   86.1412   15.4923 C.3     1  UNL1        0.0717
      6 C          63.1360   85.9753   16.9151 C.3     1  UNL1        0.0213
      7 C          64.6003   87.1845   15.1420 C.3     1  UNL1        0.0213
      8 C          64.2486   88.2857   14.1863 C.3     1  UNL1        0.0214
      9 C          63.8576   89.6361   14.7091 C.3     1  UNL1        0.0749
     10 C          63.3559   89.7795   16.1153 C.3     1  UNL1        0.0214
     11 N          63.9684   90.8433   13.8256 N.am    1  UNL1       -0.2723
     12 C          65.2472   91.6260   13.7819 C.2     1  UNL1        0.4019
     13 O          66.4154   91.2015   14.6218 O.2     1  UNL1       -0.2264
     14 H          63.2017   91.1219   13.2744 H       1  UNL1        0.1527
     15 O          65.3580   92.8331   12.8984 O.3     1  UNL1       -0.4291
     16 C          65.3420   92.6750   11.4068 C.3     1  UNL1        0.2447
     17 C          66.4943   93.1753   10.5873 C.ar    1  UNL1        0.0714
     18 C          67.7350   92.4040   10.2472 C.ar    1  UNL1        0.1053
     19 N          68.6158   93.2868    9.4136 N.ar    1  UNL1       -0.2350
     20 C          67.9194   94.6038    9.2384 C.ar    1  UNL1        0.1343
     21 S          66.6083   94.5349    9.9638 S.2     1  UNL1       -0.0652
     22 C          63.2664   83.2945   12.7450 C.3     1  UNL1        0.1496
     23 N          62.5794   85.2936    9.3862 N.am    1  UNL1       -0.2567
     24 C          63.4877   84.5715    8.4357 C.3     1  UNL1        0.1168
     25 C          62.5057   84.8680   10.8226 C.2     1  UNL1        0.3046
     26 O          61.5974   85.5902   11.7731 O.2     1  UNL1       -0.2526
     27 N          63.3401   83.7202   11.3085 N.am    1  UNL1       -0.2824
     28 H          63.9362   83.2463   10.6847 H       1  UNL1        0.1514
     29 C          61.7449   86.4415    8.9003 C.3     1  UNL1        0.1413
     30 C          60.2234   89.1376   11.2415 C.ar    1  UNL1        0.0875
     31 N          60.0763   87.9277   10.3672 N.ar    1  UNL1       -0.2453
     32 C          61.4302   87.5828    9.8214 C.ar    1  UNL1        0.0858
     33 C          62.4142   88.5795   10.3584 C.ar    1  UNL1        0.0530
     34 S          61.6683   89.5404   11.2361 S.2     1  UNL1       -0.0705
     35 C          58.3603   89.0848   13.0514 C.3     1  UNL1        0.0069
     36 C          59.1195   89.8241   11.9899 C.3     1  UNL1        0.0465
     37 C          58.7748   91.2500   11.6767 C.3     1  UNL1        0.0069
     38 C          62.6185   81.9916   13.1088 C.3     1  UNL1        0.0270
     39 C          62.8507   80.7760   12.2612 C.3     1  UNL1        0.0022
     40 C          61.7384   81.9041   14.3203 C.3     1  UNL1        0.0022
@<TRIPOS>BOND
     1    35    36    1
     2    36    37    1
     3    36    30    1
     4    30    31   ar
     5    31    32   ar
     6    32    29    1
     7    29    23    1
     8    23    24    1
     9    23    25   am
    10    25    26    2
    11    25    27   am
    12    22    27    1
    13    22     1    1
    14     1     2    2
    15     1     3   am
    16     3     5    1
    17     5     6    1
    18     5     7    1
    19     7     8    1
    20     8     9    1
    21     9    10    1
    22     9    11    1
    23    11    12   am
    24    12    13    2
    25    12    15    1
    26    15    16    1
    27    16    17    1
    28    17    18   ar
    29    18    19   ar
    30    19    20   ar
    31    20    21   ar
    32    22    38    1
    33    38    39    1
    34    38    40    1
    35    32    33   ar
    36    33    34   ar
    37    34    30   ar
    38    21    17   ar
    39    27    28    1
    40     3     4    1
    41    11    14    1
@<TRIPOS>MOLECULE
*****
 40 41 0 0 0
SMALL
GASTEIGER

@<TRIPOS>ATOM
      1 C          61.5403   87.3280    9.7499 C.2     1  UNL1        0.2403
      2 O          62.6333   88.3478    9.6254 O.2     1  UNL1       -0.2733
      3 N          60.3180   87.6342   10.5636 N.am    1  UNL1       -0.3046
      4 H          59.6006   86.9649   10.6453 H       1  UNL1        0.1494
      5 C          60.1886   88.9602   11.2528 C.3     1  UNL1        0.0717
      6 C          59.1542   89.1519   12.3221 C.3     1  UNL1        0.0213
      7 C          61.0936   90.0945   10.8728 C.3     1  UNL1        0.0213
      8 C          61.8536   90.8352   11.9329 C.3     1  UNL1        0.0214
      9 C          63.2596   90.4335   12.2667 C.3     1  UNL1        0.0749
     10 C          63.5373   89.0699   12.8264 C.3     1  UNL1        0.0214
     11 N          64.3881   91.3955   12.0408 N.am    1  UNL1       -0.2723
     12 C          65.0463   92.0675   13.2093 C.2     1  UNL1        0.4019
     13 O          64.5758   91.7774   14.6038 O.2     1  UNL1       -0.2264
     14 H          64.6969   91.5858   11.1255 H       1  UNL1        0.1527
     15 O          66.1748   93.0294   12.9833 O.3     1  UNL1       -0.4291
     16 C          66.1221   93.9905   11.8329 C.3     1  UNL1        0.2447
     17 C          66.9213   93.7202   10.5927 C.ar    1  UNL1        0.0714
     18 C          67.0751   94.6471    9.4234 C.ar    1  UNL1        0.1053
     19 N          67.9559   93.9753    8.4120 N.ar    1  UNL1       -0.2350
     20 C          68.3465   92.6331    8.9563 C.ar    1  UNL1        0.1343
     21 S          67.7071   92.4755   10.3039 S.2     1  UNL1       -0.0652
     22 C          61.6697   86.0020    9.0607 C.3     1  UNL1        0.1496
     23 N          63.3586   83.6264   11.7540 N.am    1  UNL1       -0.2567
     24 C          64.2126   82.7624   10.8742 C.3     1  UNL1        0.1168
     25 C          62.5110   84.7063   11.1495 C.2     1  UNL1        0.3046
     26 O          61.6570   85.5702   12.0295 O.2     1  UNL1       -0.2526
     27 N          62.5173   84.9221    9.6652 N.am    1  UNL1       -0.2824
     28 H          63.0778   84.3551    9.0878 H       1  UNL1        0.1514
     29 C          63.3523   83.4105   13.2384 C.3     1  UNL1        0.1413
     30 C          63.6243   86.2487   15.8721 C.ar    1  UNL1        0.0875
     31 N          62.8366   85.1793   15.1750 N.ar    1  UNL1       -0.2453
     32 C          63.7316   84.5309   14.1609 C.ar    1  UNL1        0.0858
     33 C          65.0725   85.1996   14.2311 C.ar    1  UNL1        0.0530
     34 S          65.0061   86.2612   15.2887 S.2     1  UNL1       -0.0705
     35 C          63.0832   88.6325   16.7521 C.3     1  UNL1        0.0069
     36 C          63.1189   87.1477   16.9613 C.3     1  UNL1        0.0465
     37 C          62.6491   86.5618   18.2598 C.3     1  UNL1        0.0069
     38 C          60.9515   85.7559    7.7671 C.3     1  UNL1        0.0270
     39 C          59.5976   86.3582    7.5345 C.3     1  UNL1        0.0022
     40 C          61.5872   84.9075    6.7059 C.3     1  UNL1        0.0022
@<TRIPOS>BOND
     1    35    36    1
     2    36    37    1
     3    36    30    1
     4    30    31   ar
     5    31    32   ar
     6    32    29    1
     7    29    23    1
     8    23    24    1
     9    23    25   am
    10    25    26    2
    11    25    27   am
    12    22    27    1
    13    22     1    1
    14     1     2    2
    15     1     3   am
    16     3     5    1
    17     5     6    1
    18     5     7    1
    19     7     8    1
    20     8     9    1
    21     9    10    1
    22     9    11    1
    23    11    12   am
    24    12    13    2
    25    12    15    1
    26    15    16    1
    27    16    17    1
    28    17    18   ar
    29    18    19   ar
    30    19    20   ar
    31    20    21   ar
    32    22    38    1
    33    38    39    1
    34    38    40    1
    35    32    33   ar
    36    33    34   ar
    37    34    30   ar
    38    21    17   ar
    39    27    28    1
    40     3     4    1
    41    11    14    1
@<TRIPOS>MOLECULE
*****
 40 41 0 0 0
SMALL
GASTEIGER

@<TRIPOS>ATOM
      1 C          63.2299   90.6482   13.6583 C.2     1  UNL1        0.2403
      2 O          63.6930   91.8012   12.8179 O.2     1  UNL1       -0.2733
      3 N          62.1350   89.7507   13.1623 N.am    1  UNL1       -0.3046
      4 H          61.8310   88.9940   13.7138 H       1  UNL1        0.1494
      5 C          61.5034   90.0062   11.8260 C.3     1  UNL1        0.0717
      6 C          62.2894   90.6822   10.7419 C.3     1  UNL1        0.0213
      7 C          60.0858   89.5857   11.5737 C.3     1  UNL1        0.0213
      8 C          59.7830   88.1731   11.1702 C.3     1  UNL1        0.0214
      9 C          60.4518   87.5769    9.9673 C.3     1  UNL1        0.0749
     10 C          61.1478   86.2526   10.0753 C.3     1  UNL1        0.0214
     11 N          60.4247   88.3052    8.6562 N.am    1  UNL1       -0.2723
     12 C          59.3892   87.9597    7.6275 C.2     1  UNL1        0.4019
     13 O          58.3806   86.8858    7.9100 O.2     1  UNL1       -0.2264
     14 H          61.0867   89.0099    8.4708 H       1  UNL1        0.1527
     15 O          59.3621   88.6879    6.3164 O.3     1  UNL1       -0.4291
     16 C          58.7526   90.0558    6.2307 C.3     1  UNL1        0.2447
     17 C          59.2342   91.0278    5.1948 C.ar    1  UNL1        0.0714
     18 C          58.3885   92.0274    4.4630 C.ar    1  UNL1        0.1053
     19 N          59.2776   92.7884    3.5247 N.ar    1  UNL1       -0.2350
     20 C          60.6729   92.2591    3.6767 C.ar    1  UNL1        0.1343
     21 S          60.6461   91.1710    4.7089 S.2     1  UNL1       -0.0652
     22 C          63.8615   90.3927   14.9946 C.3     1  UNL1        0.1496
     23 N          63.4676   86.7234   16.4542 N.am    1  UNL1       -0.2567
     24 C          62.4485   86.9542   17.5303 C.3     1  UNL1        0.1168
     25 C          63.9386   87.8695   15.6090 C.2     1  UNL1        0.3046
     26 O          64.9578   87.6386   14.5329 O.2     1  UNL1       -0.2526
     27 N          63.3905   89.2465   15.8398 N.am    1  UNL1       -0.2824
     28 H          62.7216   89.3980   16.5461 H       1  UNL1        0.1514
     29 C          64.0158   85.3463   16.2234 C.3     1  UNL1        0.1413
     30 C          62.5410   82.6401   13.8639 C.ar    1  UNL1        0.0875
     31 N          62.9825   83.0926   15.2242 N.ar    1  UNL1       -0.2453
     32 C          63.4789   84.5031   15.1050 C.ar    1  UNL1        0.0858
     33 C          63.3442   84.9223   13.6711 C.ar    1  UNL1        0.0530
     34 S          62.7646   83.7709   12.9041 S.2     1  UNL1       -0.0705
     35 C          60.6846   80.8438   14.1415 C.3     1  UNL1        0.0069
     36 C          61.9753   81.2932   13.5233 C.3     1  UNL1        0.0465
     37 C          62.7002   80.3959   12.5647 C.3     1  UNL1        0.0069
     38 C          64.9639   91.2834   15.4856 C.3     1  UNL1        0.0270
     39 C          64.7204   92.2129   16.6374 C.3     1  UNL1        0.0022
     40 C          66.3100   91.2445   14.8249 C.3     1  UNL1        0.0022
@<TRIPOS>BOND
     1    35    36    1
     2    36    37    1
     3    36    30    1
     4    30    31   ar
     5    31    32   ar
     6    32    29    1
     7    29    23    1
     8    23    24    1
     9    23    25   am
    10    25    26    2
    11    25    27   am
    12    22    27    1
    13    22     1    1
    14     1     2    2
    15     1     3   am
    16     3     5    1
    17     5     6    1
    18     5     7    1
    19     7     8    1
    20     8     9    1
    21     9    10    1
    22     9    11    1
    23    11    12   am
    24    12    13    2
    25    12    15    1
    26    15    16    1
    27    16    17    1
    28    17    18   ar
    29    18    19   ar
    30    19    20   ar
    31    20    21   ar
    32    22    38    1
    33    38    39    1
    34    38    40    1
    35    32    33   ar
    36    33    34   ar
    37    34    30   ar
    38    21    17   ar
    39    27    28    1
    40     3     4    1
    41    11    14    1
@<TRIPOS>MOLECULE
*****
 40 41 0 0 0
SMALL
GASTEIGER

@<TRIPOS>ATOM
      1 C          61.8242   87.2489   10.9227 C.2     1  UNL1        0.2403
      2 O          61.3740   86.1078   11.7860 O.2     1  UNL1       -0.2733
      3 N          62.5267   86.9763    9.6256 N.am    1  UNL1       -0.3046
      4 H          62.8222   87.7252    9.0590 H       1  UNL1        0.1494
      5 C          62.7791   85.5627    9.1920 C.3     1  UNL1        0.0717
      6 C          62.4531   85.1386    7.7907 C.3     1  UNL1        0.0213
      7 C          63.3576   84.5733   10.1598 C.3     1  UNL1        0.0213
      8 C          63.6723   83.1781    9.7077 C.3     1  UNL1        0.0214
      9 C          63.6864   82.0535   10.7000 C.3     1  UNL1        0.0749
     10 C          63.2638   80.6770   10.2796 C.3     1  UNL1        0.0214
     11 N          64.1231   82.3052   12.1128 N.am    1  UNL1       -0.2723
     12 C          63.1968   81.9943   13.2509 C.2     1  UNL1        0.4019
     13 O          61.8337   81.4315   12.9761 O.2     1  UNL1       -0.2264
     14 H          65.0177   82.6745   12.2931 H       1  UNL1        0.1527
     15 O          63.6334   82.2460   14.6637 O.3     1  UNL1       -0.4291
     16 C          62.9060   83.2520   15.5056 C.3     1  UNL1        0.2447
     17 C          63.3338   84.6896   15.4936 C.ar    1  UNL1        0.0714
     18 C          62.8794   85.7527   16.4493 C.ar    1  UNL1        0.1053
     19 N          63.5559   87.0367   16.0703 N.ar    1  UNL1       -0.2350
     20 C          64.4285   86.7671   14.8802 C.ar    1  UNL1        0.1343
     21 S          64.2912   85.3166   14.5239 S.2     1  UNL1       -0.0652
     22 C          61.5717   88.6625   11.3563 C.3     1  UNL1        0.1496
     23 N          63.9029   91.0847   13.4654 N.am    1  UNL1       -0.2567
     24 C          63.8822   90.4051   14.8023 C.3     1  UNL1        0.1168
     25 C          63.1328   90.5039   12.3167 C.2     1  UNL1        0.3046
     26 O          63.1537   91.1836   10.9797 O.2     1  UNL1       -0.2526
     27 N          62.3419   89.2434   12.5050 N.am    1  UNL1       -0.2824
     28 H          62.3283   88.7973   13.3825 H       1  UNL1        0.1514
     29 C          64.6939   92.3453   13.2771 C.3     1  UNL1        0.1413
     30 C          67.4794   92.6450   10.5908 C.ar    1  UNL1        0.0875
     31 N          66.0659   92.8637   11.0424 N.ar    1  UNL1       -0.2453
     32 C          65.9379   92.3320   12.4392 C.ar    1  UNL1        0.0858
     33 C          67.2725   91.7848   12.8508 C.ar    1  UNL1        0.0530
     34 S          68.2252   91.9783   11.7085 S.2     1  UNL1       -0.0705
     35 C          68.9365   92.0695    8.5182 C.3     1  UNL1        0.0069
     36 C          68.0475   93.0263    9.2559 C.3     1  UNL1        0.0465
     37 C          67.7266   94.3643    8.6587 C.3     1  UNL1        0.0069
     38 C          60.5493   89.4951   10.6413 C.3     1  UNL1        0.0270
     39 C          59.6691   90.4305   11.4160 C.3     1  UNL1        0.0022
     40 C          60.4070   89.3922    9.1516 C.3     1  UNL1        0.0022
@<TRIPOS>BOND
     1    35    36    1
     2    36    37    1
     3    36    30    1
     4    30    31   ar
     5    31    32   ar
     6    32    29    1
     7    29    23    1
     8    23    24    1
     9    23    25   am
    10    25    26    2
    11    25    27   am
    12    22    27    1
    13    22     1    1
    14     1     2    2
    15     1     3   am
    16     3     5    1
    17     5     6    1
    18     5     7    1
    19     7     8    1
    20     8     9    1
    21     9    10    1
    22     9    11    1
    23    11    12   am
    24    12    13    2
    25    12    15    1
    26    15    16    1
    27    16    17    1
    28    17    18   ar
    29    18    19   ar
    30    19    20   ar
    31    20    21   ar
    32    22    38    1
    33    38    39    1
    34    38    40    1
    35    32    33   ar
    36    33    34   ar
    37    34    30   ar
    38    21    17   ar
    39    27    28    1
    40     3     4    1
    41    11    14    1
@<TRIPOS>MOLECULE
*****
 40 41 0 0 0
SMALL
GASTEIGER

@<TRIPOS>ATOM
      1 C          61.6693   87.2410   10.6512 C.2     1  UNL1        0.2403
      2 O          61.1981   86.1428   11.5579 O.2     1  UNL1       -0.2733
      3 N          62.4504   86.9090    9.4143 N.am    1  UNL1       -0.3046
      4 H          62.7597   87.6297    8.8192 H       1  UNL1        0.1494
      5 C          62.7603   85.4790    9.0842 C.3     1  UNL1        0.0717
      6 C          62.6631   84.9985    7.6666 C.3     1  UNL1        0.0213
      7 C          63.1675   84.5295   10.1717 C.3     1  UNL1        0.0213
      8 C          63.7675   83.2002    9.8210 C.3     1  UNL1        0.0214
      9 C          63.7595   82.0855   10.8245 C.3     1  UNL1        0.0749
     10 C          63.3574   80.7024   10.4060 C.3     1  UNL1        0.0214
     11 N          64.1536   82.3539   12.2467 N.am    1  UNL1       -0.2723
     12 C          63.1713   82.1157   13.3550 C.2     1  UNL1        0.4019
     13 O          61.7947   81.6091   13.0410 O.2     1  UNL1       -0.2264
     14 H          65.0571   82.6863   12.4528 H       1  UNL1        0.1527
     15 O          63.5654   82.3840   14.7772 O.3     1  UNL1       -0.4291
     16 C          62.8597   83.4493   15.5628 C.3     1  UNL1        0.2447
     17 C          63.3321   84.8711   15.4911 C.ar    1  UNL1        0.0714
     18 C          62.9624   85.9720   16.4405 C.ar    1  UNL1        0.1053
     19 N          63.6590   87.2230   15.9936 N.ar    1  UNL1       -0.2350
     20 C          64.4593   86.8953   14.7679 C.ar    1  UNL1        0.1343
     21 S          64.2573   85.4418   14.4574 S.2     1  UNL1       -0.0652
     22 C          61.3594   88.6710   10.9813 C.3     1  UNL1        0.1496
     23 N          63.8782   91.1723   12.7558 N.am    1  UNL1       -0.2567
     24 C          63.6875   90.7935   14.1945 C.3     1  UNL1        0.1168
     25 C          63.1022   90.4649   11.6847 C.2     1  UNL1        0.3046
     26 O          63.2930   90.8438   10.2459 O.2     1  UNL1       -0.2526
     27 N          62.1355   89.3785   12.0523 N.am    1  UNL1       -0.2824
     28 H          62.0103   89.1299   12.9966 H       1  UNL1        0.1514
     29 C          64.8450   92.2587   12.3881 C.3     1  UNL1        0.1413
     30 C          68.0113   92.6295   14.6023 C.ar    1  UNL1        0.0875
     31 N          66.5325   92.7734   14.3962 N.ar    1  UNL1       -0.2453
     32 C          66.2083   92.2925   13.0129 C.ar    1  UNL1        0.0858
     33 C          67.4867   91.8513   12.3640 C.ar    1  UNL1        0.0530
     34 S          68.6010   92.0596   13.3463 S.2     1  UNL1       -0.0705
     35 C          69.1866   94.4127   16.0818 C.3     1  UNL1        0.0069
     36 C          68.7676   92.9918   15.8460 C.3     1  UNL1        0.0465
     37 C          69.1049   91.9333   16.8538 C.3     1  UNL1        0.0069
     38 C          60.2736   89.3934   10.2404 C.3     1  UNL1        0.0270
     39 C          59.9825   89.0465    8.8104 C.3     1  UNL1        0.0022
     40 C          59.4788   90.4627   10.9294 C.3     1  UNL1        0.0022
@<TRIPOS>BOND
     1    35    36    1
     2    36    37    1
     3    36    30    1
     4    30    31   ar
     5    31    32   ar
     6    32    29    1
     7    29    23    1
     8    23    24    1
     9    23    25   am
    10    25    26    2
    11    25    27   am
    12    22    27    1
    13    22     1    1
    14     1     2    2
    15     1     3   am
    16     3     5    1
    17     5     6    1
    18     5     7    1
    19     7     8    1
    20     8     9    1
    21     9    10    1
    22     9    11    1
    23    11    12   am
    24    12    13    2
    25    12    15    1
    26    15    16    1
    27    16    17    1
    28    17    18   ar
    29    18    19   ar
    30    19    20   ar
    31    20    21   ar
    32    22    38    1
    33    38    39    1
    34    38    40    1
    35    32    33   ar
    36    33    34   ar
    37    34    30   ar
    38    21    17   ar
    39    27    28    1
    40     3     4    1
    41    11    14    1
@<TRIPOS>MOLECULE
*****
 40 41 0 0 0
SMALL
GASTEIGER

@<TRIPOS>ATOM
      1 C          62.3018   85.0077   11.2236 C.2     1  UNL1        0.2403
      2 O          62.1432   85.0433   12.7148 O.2     1  UNL1       -0.2733
      3 N          63.0539   83.8829   10.5760 N.am    1  UNL1       -0.3046
      4 H          63.1580   83.8595    9.5973 H       1  UNL1        0.1494
      5 C          63.6474   82.7938   11.4196 C.3     1  UNL1        0.0717
      6 C          64.9792   82.9975   12.0790 C.3     1  UNL1        0.0213
      7 C          62.9091   81.5011   11.6038 C.3     1  UNL1        0.0213
      8 C          62.8214   80.8748   12.9639 C.3     1  UNL1        0.0214
      9 C          61.6996   81.2439   13.8887 C.3     1  UNL1        0.0749
     10 C          60.6375   80.2373   14.2185 C.3     1  UNL1        0.0214
     11 N          61.6398   82.6195   14.4836 N.am    1  UNL1       -0.2723
     12 C          62.8222   83.1676   15.2263 C.2     1  UNL1        0.4019
     13 O          64.0644   82.3399   15.3741 O.2     1  UNL1       -0.2264
     14 H          60.8245   83.1627   14.3865 H       1  UNL1        0.1527
     15 O          62.7623   84.5433   15.8212 O.3     1  UNL1       -0.4291
     16 C          63.9440   85.4606   15.7099 C.3     1  UNL1        0.2447
     17 C          63.7585   86.9426   15.8485 C.ar    1  UNL1        0.0714
     18 C          64.2592   87.9868   14.8951 C.ar    1  UNL1        0.1053
     19 N          63.8501   89.3302   15.4222 N.ar    1  UNL1       -0.2350
     20 C          63.0964   89.1163   16.7014 C.ar    1  UNL1        0.1343
     21 S          63.0399   87.6407   16.9649 S.2     1  UNL1       -0.0652
     22 C          61.7082   86.0967   10.3801 C.3     1  UNL1        0.1496
     23 N          61.4681   89.9570   11.2692 N.am    1  UNL1       -0.2567
     24 C          60.3692   89.9449   12.2901 C.3     1  UNL1        0.1168
     25 C          61.9144   88.6743   10.6325 C.2     1  UNL1        0.3046
     26 O          63.0133   88.6864    9.6116 O.2     1  UNL1       -0.2526
     27 N          61.2619   87.3795   11.0167 N.am    1  UNL1       -0.2824
     28 H          60.5407   87.3716   11.6868 H       1  UNL1        0.1514
     29 C          62.1206   91.2518   10.8850 C.3     1  UNL1        0.1413
     30 C          65.2759   91.9454   13.0364 C.ar    1  UNL1        0.0875
     31 N          63.8708   91.4393   12.8966 N.ar    1  UNL1       -0.2453
     32 C          63.4520   91.6228   11.4680 C.ar    1  UNL1        0.0858
     33 C          64.5982   92.2423   10.7249 C.ar    1  UNL1        0.0530
     34 S          65.7255   92.4417   11.6942 S.2     1  UNL1       -0.0705
     35 C          67.5580   91.6564   14.2441 C.3     1  UNL1        0.0069
     36 C          66.0888   91.9538   14.2971 C.3     1  UNL1        0.0465
     37 C          65.4324   92.2596   15.6107 C.3     1  UNL1        0.0069
     38 C          61.5610   85.9030    8.9000 C.3     1  UNL1        0.0270
     39 C          62.7304   85.4364    8.0847 C.3     1  UNL1        0.0022
     40 C          60.2444   86.1760    8.2351 C.3     1  UNL1        0.0022
@<TRIPOS>BOND
     1    35    36    1
     2    36    37    1
     3    36    30    1
     4    30    31   ar
     5    31    32   ar
     6    32    29    1
     7    29    23    1
     8    23    24    1
     9    23    25   am
    10    25    26    2
    11    25    27   am
    12    22    27    1
    13    22     1    1
    14     1     2    2
    15     1     3   am
    16     3     5    1
    17     5     6    1
    18     5     7    1
    19     7     8    1
    20     8     9    1
    21     9    10    1
    22     9    11    1
    23    11    12   am
    24    12    13    2
    25    12    15    1
    26    15    16    1
    27    16    17    1
    28    17    18   ar
    29    18    19   ar
    30    19    20   ar
    31    20    21   ar
    32    22    38    1
    33    38    39    1
    34    38    40    1
    35    32    33   ar
    36    33    34   ar
    37    34    30   ar
    38    21    17   ar
    39    27    28    1
    40     3     4    1
    41    11    14    1
@<TRIPOS>MOLECULE
*****
 40 41 0 0 0
SMALL
GASTEIGER

@<TRIPOS>ATOM
      1 C          62.0074   85.6220   10.6386 C.2     1  UNL1        0.2403
      2 O          61.2571   85.6693   11.9366 O.2     1  UNL1       -0.2733
      3 N          63.1113   84.6247   10.4462 N.am    1  UNL1       -0.3046
      4 H          63.6037   84.5936    9.5943 H       1  UNL1        0.1494
      5 C          63.4648   83.6747   11.5519 C.3     1  UNL1        0.0717
      6 C          64.5241   84.0437   12.5477 C.3     1  UNL1        0.0213
      7 C          62.7590   82.3556   11.6618 C.3     1  UNL1        0.0213
      8 C          63.0279   81.4563   12.8317 C.3     1  UNL1        0.0214
      9 C          62.2651   81.6402   14.1101 C.3     1  UNL1        0.0749
     10 C          60.8625   81.1220   14.2277 C.3     1  UNL1        0.0214
     11 N          62.9050   82.3425   15.2708 N.am    1  UNL1       -0.2723
     12 C          62.6411   83.8006   15.5035 C.2     1  UNL1        0.4019
     13 O          61.7372   84.5566   14.5752 O.2     1  UNL1       -0.2264
     14 H          63.4983   81.8463   15.8800 H       1  UNL1        0.1527
     15 O          63.2810   84.5029   16.6643 O.3     1  UNL1       -0.4291
     16 C          62.8040   85.8653   17.0722 C.3     1  UNL1        0.2447
     17 C          63.3154   87.0829   16.3611 C.ar    1  UNL1        0.0714
     18 C          64.2638   87.0920   15.1990 C.ar    1  UNL1        0.1053
     19 N          64.5028   88.5200   14.8069 N.ar    1  UNL1       -0.2350
     20 C          63.7020   89.3935   15.7267 C.ar    1  UNL1        0.1343
     21 S          62.9682   88.5053   16.6872 S.2     1  UNL1       -0.0652
     22 C          61.6539   86.5720    9.5329 C.3     1  UNL1        0.1496
     23 N          62.5311   90.0685   11.1928 N.am    1  UNL1       -0.2567
     24 C          61.8869   91.0128   10.2217 C.3     1  UNL1        0.1168
     25 C          62.4534   88.5882   10.9632 C.2     1  UNL1        0.3046
     26 O          63.0976   87.6438   11.9344 O.2     1  UNL1       -0.2526
     27 N          61.7316   88.0523    9.7626 N.am    1  UNL1       -0.2824
     28 H          61.3088   88.6722    9.1252 H       1  UNL1        0.1514
     29 C          63.2529   90.6044   12.3935 C.3     1  UNL1        0.1413
     30 C          66.2440   92.7708   11.1994 C.ar    1  UNL1        0.0875
     31 N          65.0190   91.9550   10.9097 N.ar    1  UNL1       -0.2453
     32 C          64.4725   91.4593   12.2157 C.ar    1  UNL1        0.0858
     33 C          65.3597   91.9688   13.3127 C.ar    1  UNL1        0.0530
     34 S          66.4545   92.7793   12.6846 S.2     1  UNL1       -0.0705
     35 C          66.9828   94.9372    9.9703 C.3     1  UNL1        0.0069
     36 C          67.1068   93.4575   10.1826 C.3     1  UNL1        0.0465
     37 C          68.0937   92.6645    9.3782 C.3     1  UNL1        0.0069
     38 C          61.2228   86.0417    8.1977 C.3     1  UNL1        0.0270
     39 C          59.8452   86.3368    7.6828 C.3     1  UNL1        0.0022
     40 C          62.1692   85.2164    7.3773 C.3     1  UNL1        0.0022
@<TRIPOS>BOND
     1    35    36    1
     2    36    37    1
     3    36    30    1
     4    30    31   ar
     5    31    32   ar
     6    32    29    1
     7    29    23    1
     8    23    24    1
     9    23    25   am
    10    25    26    2
    11    25    27   am
    12    22    27    1
    13    22     1    1
    14     1     2    2
    15     1     3   am
    16     3     5    1
    17     5     6    1
    18     5     7    1
    19     7     8    1
    20     8     9    1
    21     9    10    1
    22     9    11    1
    23    11    12   am
    24    12    13    2
    25    12    15    1
    26    15    16    1
    27    16    17    1
    28    17    18   ar
    29    18    19   ar
    30    19    20   ar
    31    20    21   ar
    32    22    38    1
    33    38    39    1
    34    38    40    1
    35    32    33   ar
    36    33    34   ar
    37    34    30   ar
    38    21    17   ar
    39    27    28    1
    40     3     4    1
    41    11    14    1
@<TRIPOS>MOLECULE
*****
 40 41 0 0 0
SMALL
GASTEIGER

@<TRIPOS>ATOM
      1 C          63.2122   84.1280   10.4461 C.2     1  UNL1        0.2403
      2 O          63.9904   83.9471    9.1766 O.2     1  UNL1       -0.2733
      3 N          62.1438   85.1778   10.5278 N.am    1  UNL1       -0.3046
      4 H          61.6330   85.2965   11.3610 H       1  UNL1        0.1494
      5 C          61.8538   86.0467    9.3400 C.3     1  UNL1        0.0717
      6 C          61.2196   85.4561    8.1157 C.3     1  UNL1        0.0213
      7 C          62.1979   87.5063    9.3765 C.3     1  UNL1        0.0213
      8 C          61.5595   88.4021   10.3963 C.3     1  UNL1        0.0214
      9 C          60.5276   89.4048    9.9727 C.3     1  UNL1        0.0749
     10 C          59.6380   90.0441   10.9973 C.3     1  UNL1        0.0214
     11 N          60.3853   89.7684    8.5244 N.am    1  UNL1       -0.2723
     12 C          59.4721   88.9744    7.6379 C.2     1  UNL1        0.4019
     13 O          58.7013   87.8167    8.1999 O.2     1  UNL1       -0.2264
     14 H          60.8912   90.5281    8.1556 H       1  UNL1        0.1527
     15 O          59.3298   89.3379    6.1896 O.3     1  UNL1       -0.4291
     16 C          58.9478   90.7355    5.8012 C.3     1  UNL1        0.2447
     17 C          59.7289   91.4605    4.7457 C.ar    1  UNL1        0.0714
     18 C          61.1887   91.2822    4.4506 C.ar    1  UNL1        0.1053
     19 N          61.5495   92.2026    3.3225 N.ar    1  UNL1       -0.2350
     20 C          60.3125   92.9499    2.9203 C.ar    1  UNL1        0.1343
     21 S          59.1874   92.4912    3.7999 S.2     1  UNL1       -0.0652
     22 C          63.5022   83.2591   11.6339 C.3     1  UNL1        0.1496
     23 N          64.4452   85.2615   14.9280 N.am    1  UNL1       -0.2567
     24 C          65.8895   84.8876   15.0833 C.3     1  UNL1        0.1168
     25 C          63.6494   84.7187   13.7782 C.2     1  UNL1        0.3046
     26 O          62.2051   85.0926   13.6229 O.2     1  UNL1       -0.2526
     27 N          64.2979   83.8020   12.7837 N.am    1  UNL1       -0.2824
     28 H          65.2459   83.5566   12.8857 H       1  UNL1        0.1514
     29 C          63.7967   86.1783   15.9224 C.3     1  UNL1        0.1413
     30 C          64.0238   89.8227   14.6062 C.ar    1  UNL1        0.0875
     31 N          64.2505   88.3502   14.4318 N.ar    1  UNL1       -0.2453
     32 C          63.7625   87.6563   15.6689 C.ar    1  UNL1        0.0858
     33 C          63.2342   88.7000   16.6079 C.ar    1  UNL1        0.0530
     34 S          63.3958   90.0388   15.9511 S.2     1  UNL1       -0.0705
     35 C          63.5896   91.0001   12.3313 C.3     1  UNL1        0.0069
     36 C          64.3653   90.8913   13.6105 C.3     1  UNL1        0.0465
     37 C          65.4826   91.8512   13.8940 C.3     1  UNL1        0.0069
     38 C          62.9966   81.8475   11.6718 C.3     1  UNL1        0.0270
     39 C          62.3367   81.3202   12.9114 C.3     1  UNL1        0.0022
     40 C          63.1508   80.9630   10.4702 C.3     1  UNL1        0.0022
@<TRIPOS>BOND
     1    35    36    1
     2    36    37    1
     3    36    30    1
     4    30    31   ar
     5    31    32   ar
     6    32    29    1
     7    29    23    1
     8    23    24    1
     9    23    25   am
    10    25    26    2
    11    25    27   am
    12    22    27    1
    13    22     1    1
    14     1     2    2
    15     1     3   am
    16     3     5    1
    17     5     6    1
    18     5     7    1
    19     7     8    1
    20     8     9    1
    21     9    10    1
    22     9    11    1
    23    11    12   am
    24    12    13    2
    25    12    15    1
    26    15    16    1
    27    16    17    1
    28    17    18   ar
    29    18    19   ar
    30    19    20   ar
    31    20    21   ar
    32    22    38    1
    33    38    39    1
    34    38    40    1
    35    32    33   ar
    36    33    34   ar
    37    34    30   ar
    38    21    17   ar
    39    27    28    1
    40     3     4    1
    41    11    14    1
