@<TRIPOS>MOLECULE
*****
 38 41 0 0 0
SMALL
GASTEIGER

@<TRIPOS>ATOM
      1 N          63.9796   90.0088   12.9684 N.am    1  UNL1       -0.2770
      2 C          62.8969   89.5766   12.0246 C.2     1  UNL1        0.2253
      3 O          61.9949   88.4353   12.3902 O.2     1  UNL1       -0.2749
      4 C          62.7162   90.2858   10.7153 C.3     1  UNL1        0.0746
      5 C          62.1544   90.6415    9.3707 C.3     1  UNL1        0.0095
      6 C          63.6182   91.4271   10.3498 C.3     1  UNL1        0.0153
      7 C          64.7009   91.8594   11.2936 C.3     1  UNL1        0.0452
      8 C          64.8817   91.1502   12.6029 C.3     1  UNL1        0.1018
      9 C          65.6030   93.0007   10.9280 C.ar    1  UNL1       -0.0197
     10 C          66.7309   92.7859    9.9628 C.ar    1  UNL1       -0.0042
     11 C          67.6329   93.9272    9.5973 C.ar    1  UNL1        0.0005
     12 C          67.4070   95.2835   10.1969 C.ar    1  UNL1        0.0114
     13 C          66.2792   95.4983   11.1621 C.ar    1  UNL1        0.0574
     14 CL         66.0532   96.8546   11.7619 Cl      1  UNL1       -0.0823
     15 C          65.3771   94.3569   11.5277 C.ar    1  UNL1        0.0072
     16 C          65.9645   91.5824   13.5468 C.ar    1  UNL1       -0.0039
     17 C          67.4003   91.2914   13.2247 C.ar    1  UNL1       -0.0018
     18 C          68.4831   91.7236   14.1685 C.ar    1  UNL1        0.0111
     19 C          68.1301   92.4468   15.4344 C.ar    1  UNL1        0.0577
     20 CL         69.2128   92.8789   16.3782 Cl      1  UNL1       -0.0822
     21 C          66.6942   92.7377   15.7565 C.ar    1  UNL1        0.0111
     22 C          65.6114   92.3055   14.8126 C.ar    1  UNL1       -0.0018
     23 C          64.1604   89.2997   14.2778 C.3     1  UNL1        0.0991
     24 C          63.5924   89.8893   15.5347 C.3     1  UNL1        0.0200
     25 C          62.7996   89.7357   16.7988 C.3     1  UNL1        0.0018
     26 C          63.4015   91.0640   16.4477 C.3     1  UNL1        0.0018
     27 C          64.9091   88.0010   14.3303 C.3     1  UNL1        0.1703
     28 S          64.1783   86.7254   14.6283 S.O2    1  UNL1       -0.0115
     29 O          64.5393   86.8572   16.0782 O.2     1  UNL1       -0.1730
     30 O          63.8172   86.5936   13.1785 O.2     1  UNL1       -0.1730
     31 C          63.4682   85.7797   16.3894 C.3     1  UNL1        0.0236
     32 C          63.4474   85.4498   14.9263 C.3     1  UNL1        0.1108
     33 C          63.4266   85.1200   13.4632 C.3     1  UNL1        0.0236
     34 C          62.7166   84.1743   15.2243 C.3     1  UNL1        0.0236
     35 C          61.6190   89.2680   10.6138 C.3     1  UNL1        0.0503
     36 C          60.2665   89.6711   10.1057 C.2     1  UNL1        0.0508
     37 O          59.4562   90.6873   10.8546 O.co2   1  UNL1       -0.5492
     38 O          59.7243   89.0581    8.8485 O.co2   1  UNL1       -0.5492
@<TRIPOS>UNITY_ATOM_ATTR
37 1
charge -1
@<TRIPOS>BOND
     1    31    32    1
     2    32    33    1
     3    32    34    1
     4    32    28    1
     5    28    29    2
     6    28    30    2
     7    28    27    1
     8    23    27    1
     9    23    24    1
    10    24    25    1
    11    25    26    1
    12    23     1    1
    13     1     2   am
    14     2     3    2
    15     2     4    1
    16     4     5    1
    17     4    35    1
    18    35    36    1
    19    36    37   ar
    20    36    38   ar
    21     4     6    1
    22     6     7    1
    23     7     9    1
    24     9    10   ar
    25    10    11   ar
    26    11    12   ar
    27    12    13   ar
    28    13    14    1
    29    13    15   ar
    30     7     8    1
    31     8    16    1
    32    16    17   ar
    33    17    18   ar
    34    18    19   ar
    35    19    20    1
    36    19    21   ar
    37    21    22   ar
    38    26    24    1
    39     8     1    1
    40    22    16   ar
    41    15     9   ar
@<TRIPOS>MOLECULE
*****
 38 41 0 0 0
SMALL
GASTEIGER

@<TRIPOS>ATOM
      1 N          62.8235   88.1490   12.3564 N.am    1  UNL1       -0.2770
      2 C          63.4142   88.4476   13.7024 C.2     1  UNL1        0.2253
      3 O          63.4592   89.8601   14.2051 O.2     1  UNL1       -0.2749
      4 C          63.9598   87.3336   14.5458 C.3     1  UNL1        0.0746
      5 C          64.5981   86.6246   15.7034 C.3     1  UNL1        0.0095
      6 C          63.9148   85.9210   14.0431 C.3     1  UNL1        0.0153
      7 C          63.3242   85.6225   12.6970 C.3     1  UNL1        0.0452
      8 C          62.7785   86.7365   11.8536 C.3     1  UNL1        0.1018
      9 C          63.2791   84.2100   12.1943 C.ar    1  UNL1       -0.0197
     10 C          63.9880   83.8429   10.9243 C.ar    1  UNL1       -0.0042
     11 C          63.9430   82.4304   10.4216 C.ar    1  UNL1        0.0005
     12 C          63.1891   81.3849   11.1888 C.ar    1  UNL1        0.0114
     13 C          62.4803   81.7520   12.4588 C.ar    1  UNL1        0.0574
     14 CL         61.7264   80.7065   13.2260 Cl      1  UNL1       -0.0823
     15 C          62.5253   83.1645   12.9615 C.ar    1  UNL1        0.0072
     16 C          62.1878   86.4379   10.5075 C.ar    1  UNL1       -0.0039
     17 C          63.0715   85.9786    9.3859 C.ar    1  UNL1       -0.0018
     18 C          62.4809   85.6800    8.0398 C.ar    1  UNL1        0.0111
     19 C          61.0065   85.8409    7.8152 C.ar    1  UNL1        0.0577
     20 CL         60.4159   85.5424    6.4692 Cl      1  UNL1       -0.0822
     21 C          60.1228   86.3003    8.9369 C.ar    1  UNL1        0.0111
     22 C          60.7135   86.5988   10.2830 C.ar    1  UNL1       -0.0018
     23 C          62.2778   89.2630   11.5129 C.3     1  UNL1        0.0991
     24 C          60.8399   89.6690   11.6456 C.3     1  UNL1        0.0200
     25 C          59.5061   89.5251   12.3165 C.3     1  UNL1        0.0018
     26 C          59.6833   90.5160   11.2045 C.3     1  UNL1        0.0018
     27 C          63.1701   89.9710   10.5369 C.3     1  UNL1        0.1703
     28 S          63.9856   91.1481   10.9836 S.O2    1  UNL1       -0.0115
     29 O          63.4480   91.9549    9.8390 O.2     1  UNL1       -0.1730
     30 O          64.5232   90.3413   12.1281 O.2     1  UNL1       -0.1730
     31 C          64.7197   92.9055   10.0495 C.3     1  UNL1        0.0236
     32 C          64.8011   92.3251   11.4302 C.3     1  UNL1        0.1108
     33 C          64.8825   91.7447   12.8110 C.3     1  UNL1        0.0236
     34 C          65.6166   93.5021   11.8769 C.3     1  UNL1        0.0236
     35 C          64.2265   88.4998   15.4506 C.3     1  UNL1        0.0503
     36 C          63.2471   88.8501   16.5313 C.2     1  UNL1        0.0508
     37 O          63.1615   90.2594   17.0379 O.co2   1  UNL1       -0.5492
     38 O          62.3533   87.7911   17.1054 O.co2   1  UNL1       -0.5492
@<TRIPOS>UNITY_ATOM_ATTR
37 1
charge -1
@<TRIPOS>BOND
     1    31    32    1
     2    32    33    1
     3    32    34    1
     4    32    28    1
     5    28    29    2
     6    28    30    2
     7    28    27    1
     8    23    27    1
     9    23    24    1
    10    24    25    1
    11    25    26    1
    12    23     1    1
    13     1     2   am
    14     2     3    2
    15     2     4    1
    16     4     5    1
    17     4    35    1
    18    35    36    1
    19    36    37   ar
    20    36    38   ar
    21     4     6    1
    22     6     7    1
    23     7     9    1
    24     9    10   ar
    25    10    11   ar
    26    11    12   ar
    27    12    13   ar
    28    13    14    1
    29    13    15   ar
    30     7     8    1
    31     8    16    1
    32    16    17   ar
    33    17    18   ar
    34    18    19   ar
    35    19    20    1
    36    19    21   ar
    37    21    22   ar
    38    26    24    1
    39     8     1    1
    40    22    16   ar
    41    15     9   ar
@<TRIPOS>MOLECULE
*****
 38 41 0 0 0
SMALL
GASTEIGER

@<TRIPOS>ATOM
      1 N          62.1905   94.1309   -1.3752 N.am    1  UNL1       -0.2770
      2 C          62.5656   93.7196    0.0177 C.2     1  UNL1        0.2253
      3 O          63.9728   93.2987    0.3220 O.2     1  UNL1       -0.2749
      4 C          61.5336   93.7293    1.1061 C.3     1  UNL1        0.0746
      5 C          60.9158   93.5741    2.4641 C.3     1  UNL1        0.0095
      6 C          60.1264   94.1503    0.8017 C.3     1  UNL1        0.0153
      7 C          59.7513   94.5615   -0.5911 C.3     1  UNL1        0.0452
      8 C          60.7833   94.5518   -1.6796 C.3     1  UNL1        0.1018
      9 C          58.3441   94.9825   -0.8955 C.ar    1  UNL1       -0.0197
     10 C          57.9707   96.4347   -0.8567 C.ar    1  UNL1       -0.0042
     11 C          56.5635   96.8557   -1.1611 C.ar    1  UNL1        0.0005
     12 C          55.5297   95.8244   -1.5042 C.ar    1  UNL1        0.0114
     13 C          55.9032   94.3722   -1.5430 C.ar    1  UNL1        0.0574
     14 CL         54.8694   93.3408   -1.8862 Cl      1  UNL1       -0.0823
     15 C          57.3103   93.9512   -1.2386 C.ar    1  UNL1        0.0072
     16 C          60.4081   94.9631   -3.0725 C.ar    1  UNL1       -0.0039
     17 C          60.7313   96.3447   -3.5593 C.ar    1  UNL1       -0.0018
     18 C          60.3562   96.7559   -4.9521 C.ar    1  UNL1        0.0111
     19 C          59.6579   95.7857   -5.8583 C.ar    1  UNL1        0.0577
     20 CL         59.2828   96.1970   -7.2512 Cl      1  UNL1       -0.0822
     21 C          59.3348   94.4041   -5.3715 C.ar    1  UNL1        0.0111
     22 C          59.7099   93.9929   -3.9786 C.ar    1  UNL1       -0.0018
     23 C          63.2225   94.1212   -2.4638 C.3     1  UNL1        0.0991
     24 C          64.1708   95.2744   -2.6085 C.3     1  UNL1        0.0200
     25 C          65.0444   96.1376   -3.4696 C.3     1  UNL1        0.0018
     26 C          64.9395   96.4085   -1.9980 C.3     1  UNL1        0.0018
     27 C          63.3062   92.9584   -3.4075 C.3     1  UNL1        0.1703
     28 S          63.8494   93.1537   -4.7921 S.O2    1  UNL1       -0.0115
     29 O          62.6793   94.0303   -5.1275 O.2     1  UNL1       -0.1730
     30 O          65.0194   92.2771   -4.4567 O.2     1  UNL1       -0.1730
     31 C          63.0342   93.7749   -6.6494 C.3     1  UNL1        0.0236
     32 C          64.3926   93.3490   -6.1765 C.3     1  UNL1        0.1108
     33 C          65.7509   92.9232   -5.7037 C.3     1  UNL1        0.0236
     34 C          64.9357   93.5443   -7.5610 C.3     1  UNL1        0.0236
     35 C          62.7262   93.2545    1.8822 C.3     1  UNL1        0.0503
     36 C          62.7776   91.8439    2.3898 C.2     1  UNL1        0.0508
     37 O          62.0647   90.7530    1.6470 O.co2   1  UNL1       -0.5492
     38 O          63.5419   91.5243    3.6404 O.co2   1  UNL1       -0.5492
@<TRIPOS>UNITY_ATOM_ATTR
37 1
charge -1
@<TRIPOS>BOND
     1    31    32    1
     2    32    33    1
     3    32    34    1
     4    32    28    1
     5    28    29    2
     6    28    30    2
     7    28    27    1
     8    23    27    1
     9    23    24    1
    10    24    25    1
    11    25    26    1
    12    23     1    1
    13     1     2   am
    14     2     3    2
    15     2     4    1
    16     4     5    1
    17     4    35    1
    18    35    36    1
    19    36    37   ar
    20    36    38   ar
    21     4     6    1
    22     6     7    1
    23     7     9    1
    24     9    10   ar
    25    10    11   ar
    26    11    12   ar
    27    12    13   ar
    28    13    14    1
    29    13    15   ar
    30     7     8    1
    31     8    16    1
    32    16    17   ar
    33    17    18   ar
    34    18    19   ar
    35    19    20    1
    36    19    21   ar
    37    21    22   ar
    38    26    24    1
    39     8     1    1
    40    22    16   ar
    41    15     9   ar
@<TRIPOS>MOLECULE
*****
 38 41 0 0 0
SMALL
GASTEIGER

@<TRIPOS>ATOM
      1 N          61.7985   87.5242   10.9903 N.am    1  UNL1       -0.2770
      2 C          61.3629   87.5973    9.5569 C.2     1  UNL1        0.2253
      3 O          60.8346   88.8852    8.9983 O.2     1  UNL1       -0.2749
      4 C          61.4556   86.3824    8.6820 C.3     1  UNL1        0.0746
      5 C          61.3524   85.5095    7.4665 C.3     1  UNL1        0.0095
      6 C          61.9840   85.0944    9.2406 C.3     1  UNL1        0.0153
      7 C          62.4196   85.0213   10.6740 C.3     1  UNL1        0.0452
      8 C          62.3268   86.2362   11.5489 C.3     1  UNL1        0.1018
      9 C          62.9479   83.7334   11.2326 C.ar    1  UNL1       -0.0197
     10 C          64.3741   83.3386   10.9875 C.ar    1  UNL1       -0.0042
     11 C          64.9024   82.0506   11.5460 C.ar    1  UNL1        0.0005
     12 C          64.0045   81.1574   12.3498 C.ar    1  UNL1        0.0114
     13 C          62.5784   81.5522   12.5949 C.ar    1  UNL1        0.0574
     14 CL         61.6804   80.6590   13.3987 Cl      1  UNL1       -0.0823
     15 C          62.0501   82.8402   12.0364 C.ar    1  UNL1        0.0072
     16 C          62.7625   86.1631   12.9825 C.ar    1  UNL1       -0.0039
     17 C          63.9543   86.9477   13.4451 C.ar    1  UNL1       -0.0018
     18 C          64.3899   86.8747   14.8785 C.ar    1  UNL1        0.0111
     19 C          63.6337   86.0171   15.8495 C.ar    1  UNL1        0.0577
     20 CL         64.0693   85.9440   17.2829 Cl      1  UNL1       -0.0822
     21 C          62.4419   85.2325   15.3869 C.ar    1  UNL1        0.0111
     22 C          62.0063   85.3055   13.9533 C.ar    1  UNL1       -0.0018
     23 C          61.7058   88.7391   11.8653 C.3     1  UNL1        0.0991
     24 C          60.3887   89.4332   12.0477 C.3     1  UNL1        0.0200
     25 C          59.0251   89.4893   12.6701 C.3     1  UNL1        0.0018
     26 C          59.4709   90.5794   11.7412 C.3     1  UNL1        0.0018
     27 C          62.9302   89.2598   12.5578 C.3     1  UNL1        0.1703
     28 S          63.6158   90.4913   12.0443 S.O2    1  UNL1       -0.0115
     29 O          64.0306   90.8432   13.4422 O.2     1  UNL1       -0.1730
     30 O          63.2010   90.1393   10.6465 O.2     1  UNL1       -0.1730
     31 C          63.5711   91.5857   10.2278 C.3     1  UNL1        0.0236
     32 C          64.3013   91.7226   11.5308 C.3     1  UNL1        0.1108
     33 C          65.0315   91.8595   12.8339 C.3     1  UNL1        0.0236
     34 C          64.9868   92.9540   11.0173 C.3     1  UNL1        0.0236
     35 C          60.8915   87.3672    7.7012 C.3     1  UNL1        0.0503
     36 C          59.4061   87.5363    7.5782 C.2     1  UNL1        0.0508
     37 O          58.8435   88.7352    6.8738 O.co2   1  UNL1       -0.5492
     38 O          58.4834   86.5064    8.1597 O.co2   1  UNL1       -0.5492
@<TRIPOS>UNITY_ATOM_ATTR
37 1
charge -1
@<TRIPOS>BOND
     1    31    32    1
     2    32    33    1
     3    32    34    1
     4    32    28    1
     5    28    29    2
     6    28    30    2
     7    28    27    1
     8    23    27    1
     9    23    24    1
    10    24    25    1
    11    25    26    1
    12    23     1    1
    13     1     2   am
    14     2     3    2
    15     2     4    1
    16     4     5    1
    17     4    35    1
    18    35    36    1
    19    36    37   ar
    20    36    38   ar
    21     4     6    1
    22     6     7    1
    23     7     9    1
    24     9    10   ar
    25    10    11   ar
    26    11    12   ar
    27    12    13   ar
    28    13    14    1
    29    13    15   ar
    30     7     8    1
    31     8    16    1
    32    16    17   ar
    33    17    18   ar
    34    18    19   ar
    35    19    20    1
    36    19    21   ar
    37    21    22   ar
    38    26    24    1
    39     8     1    1
    40    22    16   ar
    41    15     9   ar
@<TRIPOS>MOLECULE
*****
 38 41 0 0 0
SMALL
GASTEIGER

@<TRIPOS>ATOM
      1 N          63.3838   85.6154   12.8023 N.am    1  UNL1       -0.2770
      2 C          63.9571   84.2450   13.0109 C.2     1  UNL1        0.2253
      3 O          64.6807   83.9205   14.2840 O.2     1  UNL1       -0.2749
      4 C          63.8067   83.1992   11.9462 C.3     1  UNL1        0.0746
      5 C          63.9214   81.8818   11.2383 C.3     1  UNL1        0.0095
      6 C          63.0830   83.5237   10.6730 C.3     1  UNL1        0.0153
      7 C          62.5098   84.8941   10.4645 C.3     1  UNL1        0.0452
      8 C          62.6602   85.9399   11.5291 C.3     1  UNL1        0.1018
      9 C          61.7861   85.2186    9.1913 C.ar    1  UNL1       -0.0197
     10 C          60.5670   86.0919    9.2231 C.ar    1  UNL1       -0.0042
     11 C          59.8434   86.4164    7.9500 C.ar    1  UNL1        0.0005
     12 C          60.3389   85.8676    6.6449 C.ar    1  UNL1        0.0114
     13 C          61.5580   84.9943    6.6130 C.ar    1  UNL1        0.0574
     14 CL         62.0535   84.4455    5.3078 Cl      1  UNL1       -0.0823
     15 C          62.2816   84.6698    7.8862 C.ar    1  UNL1        0.0072
     16 C          62.0869   87.3103   11.3207 C.ar    1  UNL1       -0.0039
     17 C          62.8956   88.3633   10.6225 C.ar    1  UNL1       -0.0018
     18 C          62.3224   89.7336   10.4140 C.ar    1  UNL1        0.0111
     19 C          60.9405   90.0511   10.9037 C.ar    1  UNL1        0.0577
     20 CL         60.3673   91.4215   10.6952 Cl      1  UNL1       -0.0822
     21 C          60.1319   88.9982   11.6018 C.ar    1  UNL1        0.0111
     22 C          60.7051   87.6277   11.8103 C.ar    1  UNL1       -0.0018
     23 C          63.5342   86.6613   13.8670 C.3     1  UNL1        0.0991
     24 C          63.2825   86.3107   15.3036 C.3     1  UNL1        0.0200
     25 C          63.8020   86.0284   16.6821 C.3     1  UNL1        0.0018
     26 C          62.3269   85.9858   16.4132 C.3     1  UNL1        0.0018
     27 C          63.9364   88.0577   13.4952 C.3     1  UNL1        0.1703
     28 S          63.9291   89.1416   14.5321 S.O2    1  UNL1       -0.0115
     29 O          65.2957   88.7189   14.9836 O.2     1  UNL1       -0.1730
     30 O          62.5626   89.5643   14.0807 O.2     1  UNL1       -0.1730
     31 C          64.9425   90.9888   14.7782 C.3     1  UNL1        0.0236
     32 C          63.9218   90.2254   15.5690 C.3     1  UNL1        0.1108
     33 C          62.9012   89.4620   16.3598 C.3     1  UNL1        0.0236
     34 C          63.9145   91.3093   16.6058 C.3     1  UNL1        0.0236
     35 C          64.5702   82.4171   12.9735 C.3     1  UNL1        0.0503
     36 C          63.8678   81.3847   13.8047 C.2     1  UNL1        0.0508
     37 O          62.3756   81.4281   13.9511 O.co2   1  UNL1       -0.5492
     38 O          64.6578   80.3089   14.4894 O.co2   1  UNL1       -0.5492
@<TRIPOS>UNITY_ATOM_ATTR
37 1
charge -1
@<TRIPOS>BOND
     1    31    32    1
     2    32    33    1
     3    32    34    1
     4    32    28    1
     5    28    29    2
     6    28    30    2
     7    28    27    1
     8    23    27    1
     9    23    24    1
    10    24    25    1
    11    25    26    1
    12    23     1    1
    13     1     2   am
    14     2     3    2
    15     2     4    1
    16     4     5    1
    17     4    35    1
    18    35    36    1
    19    36    37   ar
    20    36    38   ar
    21     4     6    1
    22     6     7    1
    23     7     9    1
    24     9    10   ar
    25    10    11   ar
    26    11    12   ar
    27    12    13   ar
    28    13    14    1
    29    13    15   ar
    30     7     8    1
    31     8    16    1
    32    16    17   ar
    33    17    18   ar
    34    18    19   ar
    35    19    20    1
    36    19    21   ar
    37    21    22   ar
    38    26    24    1
    39     8     1    1
    40    22    16   ar
    41    15     9   ar
