@<TRIPOS>MOLECULE
*****
 22 24 0 0 0
SMALL
GASTEIGER

@<TRIPOS>ATOM
      1 C          61.4520   88.1938   10.8389 C.ar    1  UNL1       -0.0158
      2 C          62.2103   86.9520   11.2031 C.ar    1  UNL1        0.0050
      3 S          61.9589   85.9262   10.1379 S.2     1  UNL1       -0.0915
      4 C          61.0452   86.5341    9.1154 C.ar    1  UNL1        0.0288
      5 C          60.4580   85.9926    7.8458 C.ar    1  UNL1        0.0065
      6 C          59.5576   86.8525    7.0094 C.ar    1  UNL1        0.0005
      7 C          59.2443   88.2540    7.4426 C.ar    1  UNL1        0.0000
      8 C          59.8314   88.7955    8.7122 C.ar    1  UNL1        0.0002
      9 C          60.7319   87.9356    9.5486 C.ar    1  UNL1        0.0025
     10 C          60.1650   89.8790   12.3403 C.3     1  UNL1        0.0095
     11 C          61.4194   89.4699   11.6266 C.3     1  UNL1        0.0463
     12 C          62.6411   90.3371   11.7006 C.ar    1  UNL1        0.0007
     13 C          63.1173   91.0677   10.4801 C.ar    1  UNL1       -0.0008
     14 C          64.3390   91.9348   10.5541 C.ar    1  UNL1        0.0204
     15 C          65.0845   92.0714   11.8486 C.ar    1  UNL1        0.0989
     16 N          64.6083   91.3409   13.0690 N.ar    1  UNL1       -0.2426
     17 C          63.3866   90.4737   12.9950 C.ar    1  UNL1        0.0949
     18 C          63.0693   86.7682   12.4190 C.3     1  UNL1        0.0499
     19 C          63.2959   85.3942   12.9765 C.3     1  UNL1        0.0774
     20 N          63.2809   85.1749   14.4603 N.3     1  UNL1       -0.2700
     21 C          62.3688   84.1443   15.0570 C.3     1  UNL1        0.0897
     22 C          64.1781   85.9861   15.3474 C.3     1  UNL1        0.0897
@<TRIPOS>BOND
     1    11    10    1
     2    11    12    1
     3    12    13   ar
     4    13    14   ar
     5    14    15   ar
     6    15    16   ar
     7    16    17   ar
     8    11     1    1
     9     1     2   ar
    10     2    18    1
    11    18    19    1
    12    19    20    1
    13    20    21    1
    14    20    22    1
    15     2     3   ar
    16     3     4   ar
    17     4     5   ar
    18     5     6   ar
    19     6     7   ar
    20     7     8   ar
    21     8     9   ar
    22    17    12   ar
    23     9     1   ar
    24     9     4   ar
@<TRIPOS>MOLECULE
*****
 22 24 0 0 0
SMALL
GASTEIGER

@<TRIPOS>ATOM
      1 C          64.7711   91.7360   12.6009 C.ar    1  UNL1       -0.0158
      2 C          63.8971   90.7330   13.2938 C.ar    1  UNL1        0.0050
      3 S          64.2823   90.7054   14.7432 S.2     1  UNL1       -0.0915
      4 C          65.3944   91.6914   14.9461 C.ar    1  UNL1        0.0288
      5 C          66.1709   92.0915   16.1655 C.ar    1  UNL1        0.0065
      6 C          67.2495   93.1286   16.0608 C.ar    1  UNL1        0.0005
      7 C          67.5517   93.7655   14.7368 C.ar    1  UNL1        0.0000
      8 C          66.7751   93.3654   13.5175 C.ar    1  UNL1        0.0002
      9 C          65.6965   92.3284   13.6221 C.ar    1  UNL1        0.0025
     10 C          63.6000   91.5901   10.2863 C.3     1  UNL1        0.0095
     11 C          64.7275   92.0854   11.1428 C.3     1  UNL1        0.0463
     12 C          65.8112   92.9300   10.5412 C.ar    1  UNL1        0.0007
     13 C          67.0879   92.2935   10.0773 C.ar    1  UNL1       -0.0008
     14 C          68.1717   93.1381    9.4756 C.ar    1  UNL1        0.0204
     15 C          67.9788   94.6192    9.3377 C.ar    1  UNL1        0.0989
     16 N          66.7022   95.2557    9.8015 N.ar    1  UNL1       -0.2426
     17 C          65.6184   94.4112   10.4032 C.ar    1  UNL1        0.0949
     18 C          62.8260   89.9032   12.6502 C.3     1  UNL1        0.0499
     19 C          63.0992   88.4724   12.2923 C.3     1  UNL1        0.0774
     20 N          62.0781   87.6822   11.5287 N.3     1  UNL1       -0.2700
     21 C          60.8464   88.3581   11.0030 C.3     1  UNL1        0.0897
     22 C          62.2886   86.2163   11.2909 C.3     1  UNL1        0.0897
@<TRIPOS>BOND
     1    11    10    1
     2    11    12    1
     3    12    13   ar
     4    13    14   ar
     5    14    15   ar
     6    15    16   ar
     7    16    17   ar
     8    11     1    1
     9     1     2   ar
    10     2    18    1
    11    18    19    1
    12    19    20    1
    13    20    21    1
    14    20    22    1
    15     2     3   ar
    16     3     4   ar
    17     4     5   ar
    18     5     6   ar
    19     6     7   ar
    20     7     8   ar
    21     8     9   ar
    22    17    12   ar
    23     9     1   ar
    24     9     4   ar
@<TRIPOS>MOLECULE
*****
 22 24 0 0 0
SMALL
GASTEIGER

@<TRIPOS>ATOM
      1 C          62.9861   85.1758   11.9300 C.ar    1  UNL1       -0.0158
      2 C          63.4746   85.9027   13.1477 C.ar    1  UNL1        0.0050
      3 S          63.7511   84.8854   14.2149 S.2     1  UNL1       -0.0915
      4 C          63.4335   83.5299   13.6566 C.ar    1  UNL1        0.0288
      5 C          63.5137   82.1554   14.2517 C.ar    1  UNL1        0.0065
      6 C          63.1212   80.9603   13.4346 C.ar    1  UNL1        0.0005
      7 C          62.6484   81.1398   12.0225 C.ar    1  UNL1        0.0000
      8 C          62.5682   82.5143   11.4273 C.ar    1  UNL1        0.0002
      9 C          62.9607   83.7094   12.2444 C.ar    1  UNL1        0.0025
     10 C          62.9428   85.1318    9.3325 C.3     1  UNL1        0.0095
     11 C          62.5922   85.8049   10.6265 C.3     1  UNL1        0.0463
     12 C          61.8478   87.1070   10.6168 C.ar    1  UNL1        0.0007
     13 C          62.4459   88.3080    9.9458 C.ar    1  UNL1       -0.0008
     14 C          61.7015   89.6102    9.9360 C.ar    1  UNL1        0.0204
     15 C          60.3589   89.7115   10.5973 C.ar    1  UNL1        0.0989
     16 N          59.7608   88.5106   11.2683 N.ar    1  UNL1       -0.2426
     17 C          60.5052   87.2084   11.2780 C.ar    1  UNL1        0.0949
     18 C          63.6549   87.3863   13.2759 C.3     1  UNL1        0.0499
     19 C          64.2627   87.9632   14.5199 C.3     1  UNL1        0.0774
     20 N          63.6365   89.1579   15.1761 N.3     1  UNL1       -0.2700
     21 C          63.1558   89.0687   16.5943 C.3     1  UNL1        0.0897
     22 C          63.4910   90.4418   14.4143 C.3     1  UNL1        0.0897
@<TRIPOS>BOND
     1    11    10    1
     2    11    12    1
     3    12    13   ar
     4    13    14   ar
     5    14    15   ar
     6    15    16   ar
     7    16    17   ar
     8    11     1    1
     9     1     2   ar
    10     2    18    1
    11    18    19    1
    12    19    20    1
    13    20    21    1
    14    20    22    1
    15     2     3   ar
    16     3     4   ar
    17     4     5   ar
    18     5     6   ar
    19     6     7   ar
    20     7     8   ar
    21     8     9   ar
    22    17    12   ar
    23     9     1   ar
    24     9     4   ar
@<TRIPOS>MOLECULE
*****
 22 24 0 0 0
SMALL
GASTEIGER

@<TRIPOS>ATOM
      1 C          63.4938   87.1925   13.0554 C.ar    1  UNL1       -0.0158
      2 C          63.6771   88.6683   13.2511 C.ar    1  UNL1        0.0050
      3 S          63.0016   89.3742   12.1130 S.2     1  UNL1       -0.0915
      4 C          62.4007   88.3346   11.2139 C.ar    1  UNL1        0.0288
      5 C          61.6160   88.4416    9.9401 C.ar    1  UNL1        0.0065
      6 C          61.1354   87.2002    9.2488 C.ar    1  UNL1        0.0005
      7 C          61.4397   85.8518    9.8312 C.ar    1  UNL1        0.0000
      8 C          62.2245   85.7448   11.1050 C.ar    1  UNL1        0.0002
      9 C          62.7050   86.9862   11.7964 C.ar    1  UNL1        0.0025
     10 C          64.9252   86.4592   15.0960 C.3     1  UNL1        0.0095
     11 C          64.0089   86.1124   13.9600 C.3     1  UNL1        0.0463
     12 C          63.6080   84.6857   13.7286 C.ar    1  UNL1        0.0007
     13 C          64.3643   83.8443   12.7437 C.ar    1  UNL1       -0.0008
     14 C          63.9634   82.4176   12.5123 C.ar    1  UNL1        0.0204
     15 C          62.8060   81.8321   13.2658 C.ar    1  UNL1        0.0989
     16 N          62.0497   82.6735   14.2507 N.ar    1  UNL1       -0.2426
     17 C          62.4506   84.1003   14.4821 C.ar    1  UNL1        0.0949
     18 C          64.4077   89.3233   14.3857 C.3     1  UNL1        0.0499
     19 C          64.1423   90.7617   14.7178 C.3     1  UNL1        0.0774
     20 N          65.1793   91.8039   14.4202 N.3     1  UNL1       -0.2700
     21 C          65.4399   92.2191   13.0025 C.3     1  UNL1        0.0897
     22 C          65.9556   92.4307   15.5401 C.3     1  UNL1        0.0897
@<TRIPOS>BOND
     1    11    10    1
     2    11    12    1
     3    12    13   ar
     4    13    14   ar
     5    14    15   ar
     6    15    16   ar
     7    16    17   ar
     8    11     1    1
     9     1     2   ar
    10     2    18    1
    11    18    19    1
    12    19    20    1
    13    20    21    1
    14    20    22    1
    15     2     3   ar
    16     3     4   ar
    17     4     5   ar
    18     5     6   ar
    19     6     7   ar
    20     7     8   ar
    21     8     9   ar
    22    17    12   ar
    23     9     1   ar
    24     9     4   ar
@<TRIPOS>MOLECULE
*****
 22 24 0 0 0
SMALL
GASTEIGER

@<TRIPOS>ATOM
      1 C          64.0177   90.4313   14.2072 C.ar    1  UNL1       -0.0158
      2 C          63.1468   90.4110   12.9861 C.ar    1  UNL1        0.0050
      3 S          63.8476   91.1782   11.9042 S.2     1  UNL1       -0.0915
      4 C          65.1515   91.6726   12.4567 C.ar    1  UNL1        0.0288
      5 C          66.2567   92.4834   11.8477 C.ar    1  UNL1        0.0065
      6 C          67.4671   92.8327   12.6619 C.ar    1  UNL1        0.0005
      7 C          67.5722   92.3710   14.0852 C.ar    1  UNL1        0.0000
      8 C          66.4670   91.5602   14.6943 C.ar    1  UNL1        0.0002
      9 C          65.2567   91.2109   13.8800 C.ar    1  UNL1        0.0025
     10 C          63.3609   90.6335   16.7128 C.3     1  UNL1        0.0095
     11 C          63.7046   89.7853   15.5242 C.3     1  UNL1        0.0463
     12 C          63.7351   88.2912   15.6529 C.ar    1  UNL1        0.0007
     13 C          64.4225   87.4623   14.6085 C.ar    1  UNL1       -0.0008
     14 C          64.4530   85.9682   14.7371 C.ar    1  UNL1        0.0204
     15 C          63.7961   85.3028   15.9101 C.ar    1  UNL1        0.0989
     16 N          63.1087   86.1316   16.9544 N.ar    1  UNL1       -0.2426
     17 C          63.0782   87.6258   16.8258 C.ar    1  UNL1        0.0949
     18 C          61.8099   89.7412   12.8676 C.3     1  UNL1        0.0499
     19 C          61.1301   89.6545   11.5333 C.3     1  UNL1        0.0774
     20 N          61.1658   88.3725   10.7553 N.3     1  UNL1       -0.2700
     21 C          60.1795   88.1385    9.6496 C.3     1  UNL1        0.0897
     22 C          62.1878   87.3246   11.0829 C.3     1  UNL1        0.0897
@<TRIPOS>BOND
     1    11    10    1
     2    11    12    1
     3    12    13   ar
     4    13    14   ar
     5    14    15   ar
     6    15    16   ar
     7    16    17   ar
     8    11     1    1
     9     1     2   ar
    10     2    18    1
    11    18    19    1
    12    19    20    1
    13    20    21    1
    14    20    22    1
    15     2     3   ar
    16     3     4   ar
    17     4     5   ar
    18     5     6   ar
    19     6     7   ar
    20     7     8   ar
    21     8     9   ar
    22    17    12   ar
    23     9     1   ar
    24     9     4   ar
@<TRIPOS>MOLECULE
*****
 22 24 0 0 0
SMALL
GASTEIGER

@<TRIPOS>ATOM
      1 C          61.1209   88.5528   10.2988 C.ar    1  UNL1       -0.0158
      2 C          60.5281   88.3737    8.9326 C.ar    1  UNL1        0.0050
      3 S          60.8054   86.9684    8.4876 S.2     1  UNL1       -0.0915
      4 C          61.5695   86.2788    9.5788 C.ar    1  UNL1        0.0288
      5 C          62.1130   84.8858    9.6977 C.ar    1  UNL1        0.0065
      6 C          62.8514   84.4721   10.9360 C.ar    1  UNL1        0.0005
      7 C          63.0464   85.4513   12.0554 C.ar    1  UNL1        0.0000
      8 C          62.5030   86.8443   11.9365 C.ar    1  UNL1        0.0002
      9 C          61.7646   87.2581   10.6982 C.ar    1  UNL1        0.0025
     10 C          59.7663   90.3194   11.6384 C.3     1  UNL1        0.0095
     11 C          61.0777   89.8064   11.1213 C.3     1  UNL1        0.0463
     12 C          62.3457   90.5471   11.4268 C.ar    1  UNL1        0.0007
     13 C          63.1113   91.2114   10.3210 C.ar    1  UNL1       -0.0008
     14 C          64.3793   91.9522   10.6265 C.ar    1  UNL1        0.0204
     15 C          64.8818   92.0287   12.0378 C.ar    1  UNL1        0.0989
     16 N          64.1163   91.3645   13.1435 N.ar    1  UNL1       -0.2426
     17 C          62.8482   90.6237   12.8381 C.ar    1  UNL1        0.0949
     18 C          59.7880   89.4169    8.1490 C.3     1  UNL1        0.0499
     19 C          59.3975   89.1492    6.7258 C.3     1  UNL1        0.0774
     20 N          59.2412   90.2894    5.7637 N.3     1  UNL1       -0.2700
     21 C          57.8806   90.8588    5.4902 C.3     1  UNL1        0.0897
     22 C          60.4454   90.8601    5.0752 C.3     1  UNL1        0.0897
@<TRIPOS>BOND
     1    11    10    1
     2    11    12    1
     3    12    13   ar
     4    13    14   ar
     5    14    15   ar
     6    15    16   ar
     7    16    17   ar
     8    11     1    1
     9     1     2   ar
    10     2    18    1
    11    18    19    1
    12    19    20    1
    13    20    21    1
    14    20    22    1
    15     2     3   ar
    16     3     4   ar
    17     4     5   ar
    18     5     6   ar
    19     6     7   ar
    20     7     8   ar
    21     8     9   ar
    22    17    12   ar
    23     9     1   ar
    24     9     4   ar
@<TRIPOS>MOLECULE
*****
 22 24 0 0 0
SMALL
GASTEIGER

@<TRIPOS>ATOM
      1 C          63.0797   84.9839   11.6038 C.ar    1  UNL1       -0.0158
      2 C          62.2597   85.9269   10.7742 C.ar    1  UNL1        0.0050
      3 S          62.3121   87.2791   11.4214 S.2     1  UNL1       -0.0915
      4 C          63.1646   87.1717   12.6509 C.ar    1  UNL1        0.0288
      5 C          63.5701   88.1824   13.6824 C.ar    1  UNL1        0.0065
      6 C          64.4500   87.7746   14.8267 C.ar    1  UNL1        0.0005
      7 C          64.9244   86.3560   14.9395 C.ar    1  UNL1        0.0000
      8 C          64.5188   85.3453   13.9080 C.ar    1  UNL1        0.0002
      9 C          63.6389   85.7532   12.7637 C.ar    1  UNL1        0.0025
     10 C          64.0405   83.1056   10.0874 C.3     1  UNL1        0.0095
     11 C          63.3015   83.5272   11.3229 C.3     1  UNL1        0.0463
     12 C          62.7844   82.4920   12.2773 C.ar    1  UNL1        0.0007
     13 C          62.8793   81.0362   11.9285 C.ar    1  UNL1       -0.0008
     14 C          62.3622   80.0010   12.8829 C.ar    1  UNL1        0.0204
     15 C          61.7503   80.4216   14.1862 C.ar    1  UNL1        0.0989
     16 N          61.6554   81.8773   14.5351 N.ar    1  UNL1       -0.2426
     17 C          62.1725   82.9125   13.5807 C.ar    1  UNL1        0.0949
     18 C          61.5175   85.5788    9.5180 C.3     1  UNL1        0.0499
     19 C          61.3973   86.5872    8.4141 C.3     1  UNL1        0.0774
     20 N          60.1566   87.4215    8.2922 N.3     1  UNL1       -0.2700
     21 C          60.1785   88.8631    8.7060 C.3     1  UNL1        0.0897
     22 C          58.8941   86.8141    7.7564 C.3     1  UNL1        0.0897
@<TRIPOS>BOND
     1    11    10    1
     2    11    12    1
     3    12    13   ar
     4    13    14   ar
     5    14    15   ar
     6    15    16   ar
     7    16    17   ar
     8    11     1    1
     9     1     2   ar
    10     2    18    1
    11    18    19    1
    12    19    20    1
    13    20    21    1
    14    20    22    1
    15     2     3   ar
    16     3     4   ar
    17     4     5   ar
    18     5     6   ar
    19     6     7   ar
    20     7     8   ar
    21     8     9   ar
    22    17    12   ar
    23     9     1   ar
    24     9     4   ar
@<TRIPOS>MOLECULE
*****
 22 24 0 0 0
SMALL
GASTEIGER

@<TRIPOS>ATOM
      1 C          63.0045   88.5161   11.9454 C.ar    1  UNL1       -0.0158
      2 C          62.2361   87.8000   10.8745 C.ar    1  UNL1        0.0050
      3 S          62.2352   86.3368   11.2045 S.2     1  UNL1       -0.0915
      4 C          63.0031   86.1485   12.4793 C.ar    1  UNL1        0.0288
      5 C          63.3307   84.9247   13.2822 C.ar    1  UNL1        0.0065
      6 C          64.1338   85.0478   14.5431 C.ar    1  UNL1        0.0005
      7 C          64.6093   86.3947   15.0010 C.ar    1  UNL1        0.0000
      8 C          64.2816   87.6186   14.1980 C.ar    1  UNL1        0.0002
      9 C          63.4785   87.4955   12.9372 C.ar    1  UNL1        0.0025
     10 C          62.8675   90.8732   10.8610 C.3     1  UNL1        0.0095
     11 C          63.2550   89.9935   12.0127 C.3     1  UNL1        0.0463
     12 C          63.8928   90.5914   13.2315 C.ar    1  UNL1        0.0007
     13 C          65.2753   91.1674   13.1485 C.ar    1  UNL1       -0.0008
     14 C          65.9132   91.7653   14.3674 C.ar    1  UNL1        0.0204
     15 C          65.1686   91.7872   15.6693 C.ar    1  UNL1        0.0989
     16 N          63.7861   91.2112   15.7524 N.ar    1  UNL1       -0.2426
     17 C          63.1482   90.6133   14.5335 C.ar    1  UNL1        0.0949
     18 C          61.5833   88.4355    9.6830 C.3     1  UNL1        0.0499
     19 C          60.1045   88.2954    9.4743 C.3     1  UNL1        0.0774
     20 N          59.5652   87.9953    8.1071 N.3     1  UNL1       -0.2700
     21 C          59.2386   86.5824    7.7232 C.3     1  UNL1        0.0897
     22 C          59.3523   89.1079    7.1240 C.3     1  UNL1        0.0897
@<TRIPOS>BOND
     1    11    10    1
     2    11    12    1
     3    12    13   ar
     4    13    14   ar
     5    14    15   ar
     6    15    16   ar
     7    16    17   ar
     8    11     1    1
     9     1     2   ar
    10     2    18    1
    11    18    19    1
    12    19    20    1
    13    20    21    1
    14    20    22    1
    15     2     3   ar
    16     3     4   ar
    17     4     5   ar
    18     5     6   ar
    19     6     7   ar
    20     7     8   ar
    21     8     9   ar
    22    17    12   ar
    23     9     1   ar
    24     9     4   ar
@<TRIPOS>MOLECULE
*****
 22 24 0 0 0
SMALL
GASTEIGER

@<TRIPOS>ATOM
      1 C          62.6086   85.5384   11.1755 C.ar    1  UNL1       -0.0158
      2 C          63.1729   84.9549    9.9141 C.ar    1  UNL1        0.0050
      3 S          63.7328   83.6019   10.2392 S.2     1  UNL1       -0.0915
      4 C          63.5146   83.3491   11.7016 C.ar    1  UNL1        0.0288
      5 C          63.8588   82.1837   12.5810 C.ar    1  UNL1        0.0065
      6 C          63.5082   82.2152   14.0391 C.ar    1  UNL1        0.0005
      7 C          62.8135   83.4120   14.6178 C.ar    1  UNL1        0.0000
      8 C          62.4693   84.5774   13.7383 C.ar    1  UNL1        0.0002
      9 C          62.8198   84.5459   12.2803 C.ar    1  UNL1        0.0025
     10 C          60.5520   87.0813   10.8011 C.3     1  UNL1        0.0095
     11 C          61.9490   86.8789   11.3088 C.3     1  UNL1        0.0463
     12 C          62.6862   88.0172   11.9498 C.ar    1  UNL1        0.0007
     13 C          63.5015   87.7810   13.1866 C.ar    1  UNL1       -0.0008
     14 C          64.2387   88.9192   13.8277 C.ar    1  UNL1        0.0204
     15 C          64.1606   90.2937   13.2320 C.ar    1  UNL1        0.0989
     16 N          63.3453   90.5298   11.9953 N.ar    1  UNL1       -0.2426
     17 C          62.6081   89.3916   11.3542 C.ar    1  UNL1        0.0949
     18 C          63.1766   85.6096    8.5645 C.3     1  UNL1        0.0499
     19 C          62.9238   84.7911    7.3332 C.3     1  UNL1        0.0774
     20 N          61.5775   84.8260    6.6727 N.3     1  UNL1       -0.2700
     21 C          61.3577   84.0991    5.3790 C.3     1  UNL1        0.0897
     22 C          60.4510   85.5877    7.3058 C.3     1  UNL1        0.0897
@<TRIPOS>BOND
     1    11    10    1
     2    11    12    1
     3    12    13   ar
     4    13    14   ar
     5    14    15   ar
     6    15    16   ar
     7    16    17   ar
     8    11     1    1
     9     1     2   ar
    10     2    18    1
    11    18    19    1
    12    19    20    1
    13    20    21    1
    14    20    22    1
    15     2     3   ar
    16     3     4   ar
    17     4     5   ar
    18     5     6   ar
    19     6     7   ar
    20     7     8   ar
    21     8     9   ar
    22    17    12   ar
    23     9     1   ar
    24     9     4   ar
