@<TRIPOS>MOLECULE
*****
 49 52 0 0 0
SMALL
GASTEIGER

@<TRIPOS>ATOM
      1 C          63.2506   90.7828   11.0205 C.3     1  UNL1        0.0760
      2 C          61.4569   88.9627   10.5515 C.2     1  UNL1        0.2403
      3 O          60.4364   89.7785   11.2883 O.2     1  UNL1       -0.2733
      4 N          62.8641   89.4648   10.4176 N.am    1  UNL1       -0.3043
      5 H          63.5339   88.9293    9.9341 H       1  UNL1        0.1494
      6 C          61.0704   87.6446    9.9487 C.3     1  UNL1        0.1496
      7 N          61.5318   86.3658   10.5827 N.am    1  UNL1       -0.2824
      8 C          62.5749   85.5269    9.9059 C.2     1  UNL1        0.3046
      9 O          63.1567   85.9668    8.5951 O.2     1  UNL1       -0.2526
     10 N          63.0362   84.2481   10.5398 N.am    1  UNL1       -0.2567
     11 C          64.0794   83.4092    9.8630 C.3     1  UNL1        0.1168
     12 H          61.1499   86.0771   11.4430 H       1  UNL1        0.1514
     13 C          62.4545   83.8083   11.8505 C.3     1  UNL1        0.1414
     14 C          62.4568   82.3550   12.2222 C.ar    1  UNL1        0.0862
     15 C          61.9543   81.7736   13.5104 C.ar    1  UNL1        0.0533
     16 S          62.1490   80.2874   13.4553 S.2     1  UNL1       -0.0642
     17 C          62.7720   79.9502   12.1330 C.ar    1  UNL1        0.1342
     18 N          62.9622   81.2281   11.3710 N.ar    1  UNL1       -0.2389
     19 C          59.8343   88.8827    8.0280 C.3     1  UNL1        0.0022
     20 C          60.2226   87.6054    8.7120 C.3     1  UNL1        0.0270
     21 C          59.7631   86.2889    8.1592 C.3     1  UNL1        0.0022
     22 C          63.6742   91.9171   10.1350 C.3     1  UNL1        0.0459
     23 C          65.0203   92.5521   10.3218 C.ar    1  UNL1       -0.0205
     24 C          66.2661   91.7656   10.0401 C.ar    1  UNL1       -0.0042
     25 C          67.6122   92.4006   10.2269 C.ar    1  UNL1       -0.0003
     26 C          67.7125   93.8220   10.6953 C.ar    1  UNL1       -0.0000
     27 C          66.4666   94.6085   10.9770 C.ar    1  UNL1       -0.0003
     28 C          65.1205   93.9736   10.7903 C.ar    1  UNL1       -0.0042
     29 C          63.2136   90.9665   12.5087 C.3     1  UNL1        0.0216
     30 C          63.7126   89.8775   13.4114 C.3     1  UNL1        0.0217
     31 C          64.1706   90.2065   14.8014 C.3     1  UNL1        0.0792
     32 N          64.1981   89.1387   15.8545 N.am    1  UNL1       -0.2720
     33 C          62.9272   88.7223   16.5338 C.2     1  UNL1        0.4019
     34 O          61.6288   89.3738   16.1600 O.2     1  UNL1       -0.2264
     35 H          65.0503   88.7111   16.0998 H       1  UNL1        0.1527
     36 O          62.9547   87.6544   17.5868 O.3     1  UNL1       -0.4291
     37 C          62.5131   86.2604   17.2530 C.3     1  UNL1        0.2447
     38 C          63.3081   85.4329   16.2870 C.ar    1  UNL1        0.0714
     39 C          63.1853   83.9515   16.0858 C.ar    1  UNL1        0.1053
     40 N          64.1668   83.5445   15.0270 N.ar    1  UNL1       -0.2350
     41 C          64.8961   84.7744   14.5737 C.ar    1  UNL1        0.1343
     42 S          64.3654   85.9414   15.3524 S.2     1  UNL1       -0.0652
     43 C          64.6011   91.6034   15.1383 C.3     1  UNL1        0.0460
     44 C          66.0529   91.9759   15.0781 C.ar    1  UNL1       -0.0205
     45 C          66.6920   92.6914   16.2310 C.ar    1  UNL1       -0.0042
     46 C          68.1438   93.0640   16.1707 C.ar    1  UNL1       -0.0003
     47 C          68.9563   92.7210   14.9574 C.ar    1  UNL1       -0.0000
     48 C          68.3172   92.0054   13.8044 C.ar    1  UNL1       -0.0003
     49 C          66.8654   91.6329   13.8648 C.ar    1  UNL1       -0.0042
@<TRIPOS>BOND
     1    19    20    1
     2    20    21    1
     3    20     6    1
     4     6     7    1
     5     7     8   am
     6     8     9    2
     7     8    10   am
     8    10    11    1
     9    10    13    1
    10    13    14    1
    11    14    15   ar
    12    15    16   ar
    13    16    17   ar
    14    17    18   ar
    15     6     2    1
    16     2     3    2
    17     2     4   am
    18     4     1    1
    19     1    29    1
    20    29    30    1
    21    31    30    1
    22    31    43    1
    23    43    44    1
    24    44    45   ar
    25    45    46   ar
    26    46    47   ar
    27    47    48   ar
    28    48    49   ar
    29    31    32    1
    30    32    33   am
    31    33    34    2
    32    33    36    1
    33    36    37    1
    34    37    38    1
    35    38    39   ar
    36    39    40   ar
    37    40    41   ar
    38    41    42   ar
    39     1    22    1
    40    22    23    1
    41    23    24   ar
    42    24    25   ar
    43    25    26   ar
    44    26    27   ar
    45    27    28   ar
    46    18    14   ar
    47    49    44   ar
    48    42    38   ar
    49    28    23   ar
    50     7    12    1
    51     4     5    1
    52    32    35    1
@<TRIPOS>MOLECULE
*****
 49 52 0 0 0
SMALL
GASTEIGER

@<TRIPOS>ATOM
      1 C          61.7632   89.8370   10.6563 C.3     1  UNL1        0.0760
      2 C          61.6045   87.3320   11.3274 C.2     1  UNL1        0.2403
      3 O          60.2661   87.5851   11.9555 O.2     1  UNL1       -0.2733
      4 N          62.3531   88.4580   10.6778 N.am    1  UNL1       -0.3043
      5 H          63.2316   88.2919   10.2655 H       1  UNL1        0.1494
      6 C          62.1944   85.9531   11.3488 C.3     1  UNL1        0.1496
      7 N          62.2428   85.1779   12.6322 N.am    1  UNL1       -0.2824
      8 C          63.1248   85.6394   13.7543 C.2     1  UNL1        0.3046
      9 O          63.9584   86.8761   13.5930 O.2     1  UNL1       -0.2526
     10 N          63.1733   84.8644   15.0376 N.am    1  UNL1       -0.2567
     11 C          64.0553   85.3259   16.1597 C.3     1  UNL1        0.1168
     12 H          61.6957   84.3663   12.7380 H       1  UNL1        0.1514
     13 C          62.3397   83.6278   15.1988 C.3     1  UNL1        0.1414
     14 C          62.5596   82.4518   14.2939 C.ar    1  UNL1        0.0862
     15 C          61.7525   81.1876   14.2792 C.ar    1  UNL1        0.0533
     16 S          62.3193   80.2881   13.2211 S.2     1  UNL1       -0.0642
     17 C          63.4768   80.9964   12.5819 C.ar    1  UNL1        0.1342
     18 N          63.6253   82.3336   13.2449 N.ar    1  UNL1       -0.2389
     19 C          63.5627   84.0992   10.1485 C.3     1  UNL1        0.0022
     20 C          62.7358   85.3492   10.0871 C.3     1  UNL1        0.0270
     21 C          62.4505   85.9954    8.7638 C.3     1  UNL1        0.0022
     22 C          60.4004   90.0607   10.0708 C.3     1  UNL1        0.0459
     23 C          59.9441   89.2430    8.8990 C.ar    1  UNL1       -0.0205
     24 C          59.5017   87.8241    9.1013 C.ar    1  UNL1       -0.0042
     25 C          59.0454   87.0065    7.9294 C.ar    1  UNL1       -0.0003
     26 C          59.0315   87.6077    6.5553 C.ar    1  UNL1       -0.0000
     27 C          59.4740   89.0267    6.3529 C.ar    1  UNL1       -0.0003
     28 C          59.9303   89.8443    7.5248 C.ar    1  UNL1       -0.0042
     29 C          62.5361   90.9922   11.2202 C.3     1  UNL1        0.0216
     30 C          63.9036   91.3090   10.6916 C.3     1  UNL1        0.0217
     31 C          64.9087   91.9908   11.5721 C.3     1  UNL1        0.0792
     32 N          64.5532   92.3368   12.9877 N.am    1  UNL1       -0.2720
     33 C          64.5275   91.2658   14.0377 C.2     1  UNL1        0.4019
     34 O          64.8573   89.8490   13.6721 O.2     1  UNL1       -0.2264
     35 H          64.3367   93.2667   13.2277 H       1  UNL1        0.1527
     36 O          64.1720   91.6118   15.4533 O.3     1  UNL1       -0.4291
     37 C          65.1249   92.4108   16.2921 C.3     1  UNL1        0.2447
     38 C          66.5179   92.6727   15.8013 C.ar    1  UNL1        0.0714
     39 C          66.8997   93.5971   14.6834 C.ar    1  UNL1        0.1053
     40 N          68.3915   93.5519   14.5334 N.ar    1  UNL1       -0.2350
     41 C          68.9318   92.5995   15.5585 C.ar    1  UNL1        0.1343
     42 S          67.7738   92.0561   16.3421 S.2     1  UNL1       -0.0652
     43 C          66.2691   92.3266   11.0370 C.3     1  UNL1        0.0460
     44 C          66.5523   93.7060   10.5202 C.ar    1  UNL1       -0.0205
     45 C          66.0899   94.9059   11.2925 C.ar    1  UNL1       -0.0042
     46 C          66.3732   96.2852   10.7756 C.ar    1  UNL1       -0.0003
     47 C          67.1188   96.4647    9.4865 C.ar    1  UNL1       -0.0000
     48 C          67.5812   95.2648    8.7142 C.ar    1  UNL1       -0.0003
     49 C          67.2980   93.8855    9.2311 C.ar    1  UNL1       -0.0042
@<TRIPOS>BOND
     1    19    20    1
     2    20    21    1
     3    20     6    1
     4     6     7    1
     5     7     8   am
     6     8     9    2
     7     8    10   am
     8    10    11    1
     9    10    13    1
    10    13    14    1
    11    14    15   ar
    12    15    16   ar
    13    16    17   ar
    14    17    18   ar
    15     6     2    1
    16     2     3    2
    17     2     4   am
    18     4     1    1
    19     1    29    1
    20    29    30    1
    21    31    30    1
    22    31    43    1
    23    43    44    1
    24    44    45   ar
    25    45    46   ar
    26    46    47   ar
    27    47    48   ar
    28    48    49   ar
    29    31    32    1
    30    32    33   am
    31    33    34    2
    32    33    36    1
    33    36    37    1
    34    37    38    1
    35    38    39   ar
    36    39    40   ar
    37    40    41   ar
    38    41    42   ar
    39     1    22    1
    40    22    23    1
    41    23    24   ar
    42    24    25   ar
    43    25    26   ar
    44    26    27   ar
    45    27    28   ar
    46    18    14   ar
    47    49    44   ar
    48    42    38   ar
    49    28    23   ar
    50     7    12    1
    51     4     5    1
    52    32    35    1
@<TRIPOS>MOLECULE
*****
 49 52 0 0 0
SMALL
GASTEIGER

@<TRIPOS>ATOM
      1 C          62.1221   87.8747   11.0563 C.3     1  UNL1        0.0760
      2 C          62.4998   89.5550   13.0016 C.2     1  UNL1        0.2403
      3 O          61.0228   89.8073   13.0704 O.2     1  UNL1       -0.2733
      4 N          63.0495   88.5887   11.9945 N.am    1  UNL1       -0.3043
      5 H          64.0189   88.4231   11.9493 H       1  UNL1        0.1494
      6 C          63.4271   90.2690   13.9397 C.3     1  UNL1        0.1496
      7 N          64.2885   91.3887   13.4353 N.am    1  UNL1       -0.2824
      8 C          65.7232   91.4824   13.8628 C.2     1  UNL1        0.3046
      9 O          66.2966   90.4563   14.7948 O.2     1  UNL1       -0.2526
     10 N          66.5845   92.6020   13.3584 N.am    1  UNL1       -0.2567
     11 C          68.0193   92.6957   13.7859 C.3     1  UNL1        0.1168
     12 H          63.9121   92.0621   12.8236 H       1  UNL1        0.1514
     13 C          66.0111   93.6280   12.4265 C.3     1  UNL1        0.1414
     14 C          66.6804   93.9055   11.1130 C.ar    1  UNL1        0.0862
     15 C          66.6118   95.1907   10.3426 C.ar    1  UNL1        0.0533
     16 S          67.4247   95.0260    9.0928 S.2     1  UNL1       -0.0642
     17 C          67.9957   93.6389    9.0907 C.ar    1  UNL1        0.1342
     18 N          67.5356   92.9464   10.3392 N.ar    1  UNL1       -0.2389
     19 C          63.6155   88.4140   15.7490 C.3     1  UNL1        0.0022
     20 C          63.4932   89.8634   15.3823 C.3     1  UNL1        0.0270
     21 C          63.4370   90.9070   16.4582 C.3     1  UNL1        0.0022
     22 C          61.5901   86.5187   11.4150 C.3     1  UNL1        0.0459
     23 C          62.5312   85.4351   11.8510 C.ar    1  UNL1       -0.0205
     24 C          62.7632   84.2438   10.9697 C.ar    1  UNL1       -0.0042
     25 C          63.7043   83.1602   11.4057 C.ar    1  UNL1       -0.0003
     26 C          64.4134   83.2679   12.7231 C.ar    1  UNL1       -0.0000
     27 C          64.1815   84.4593   13.6045 C.ar    1  UNL1       -0.0003
     28 C          63.2404   85.5429   13.1685 C.ar    1  UNL1       -0.0042
     29 C          61.7267   88.5165    9.7595 C.3     1  UNL1        0.0216
     30 C          60.2766   88.7215    9.4357 C.3     1  UNL1        0.0217
     31 C          59.6066   87.8532    8.4122 C.3     1  UNL1        0.0792
     32 N          58.8084   88.4773    7.3061 N.am    1  UNL1       -0.2720
     33 C          59.3448   89.6734    6.5768 C.2     1  UNL1        0.4019
     34 O          60.6792   90.2454    6.9537 O.2     1  UNL1       -0.2264
     35 H          57.9326   88.1018    7.0588 H       1  UNL1        0.1527
     36 O          58.5466   90.2974    5.4707 O.3     1  UNL1       -0.4291
     37 C          58.7930   91.7248    5.0812 C.3     1  UNL1        0.2447
     38 C          59.8808   92.0584    4.1038 C.ar    1  UNL1        0.0714
     39 C          61.3079   91.6035    4.1837 C.ar    1  UNL1        0.1053
     40 N          62.0416   92.1695    3.0042 N.ar    1  UNL1       -0.2350
     41 C          61.0680   92.9742    2.1952 C.ar    1  UNL1        0.1343
     42 S          59.7325   92.9055    2.8748 S.2     1  UNL1       -0.0652
     43 C          59.7349   86.3610    8.4949 C.3     1  UNL1        0.0460
     44 C          60.7888   85.6534    7.6957 C.ar    1  UNL1       -0.0205
     45 C          62.2186   85.6823    8.1480 C.ar    1  UNL1       -0.0042
     46 C          63.2724   84.9747    7.3488 C.ar    1  UNL1       -0.0003
     47 C          62.8964   84.2381    6.0974 C.ar    1  UNL1       -0.0000
     48 C          61.4665   84.2092    5.6451 C.ar    1  UNL1       -0.0003
     49 C          60.4127   84.9168    6.4443 C.ar    1  UNL1       -0.0042
@<TRIPOS>BOND
     1    19    20    1
     2    20    21    1
     3    20     6    1
     4     6     7    1
     5     7     8   am
     6     8     9    2
     7     8    10   am
     8    10    11    1
     9    10    13    1
    10    13    14    1
    11    14    15   ar
    12    15    16   ar
    13    16    17   ar
    14    17    18   ar
    15     6     2    1
    16     2     3    2
    17     2     4   am
    18     4     1    1
    19     1    29    1
    20    29    30    1
    21    31    30    1
    22    31    43    1
    23    43    44    1
    24    44    45   ar
    25    45    46   ar
    26    46    47   ar
    27    47    48   ar
    28    48    49   ar
    29    31    32    1
    30    32    33   am
    31    33    34    2
    32    33    36    1
    33    36    37    1
    34    37    38    1
    35    38    39   ar
    36    39    40   ar
    37    40    41   ar
    38    41    42   ar
    39     1    22    1
    40    22    23    1
    41    23    24   ar
    42    24    25   ar
    43    25    26   ar
    44    26    27   ar
    45    27    28   ar
    46    18    14   ar
    47    49    44   ar
    48    42    38   ar
    49    28    23   ar
    50     7    12    1
    51     4     5    1
    52    32    35    1
@<TRIPOS>MOLECULE
*****
 49 52 0 0 0
SMALL
GASTEIGER

@<TRIPOS>ATOM
      1 C          62.3512   89.5930   10.2163 C.3     1  UNL1        0.0760
      2 C          62.0070   87.2021   11.1731 C.2     1  UNL1        0.2403
      3 O          60.6899   87.6241   11.7538 O.2     1  UNL1       -0.2733
      4 N          62.8376   88.1866   10.4044 N.am    1  UNL1       -0.3043
      5 H          63.7021   87.9096   10.0232 H       1  UNL1        0.1494
      6 C          62.4935   85.7957   11.3611 C.3     1  UNL1        0.1496
      7 N          62.4720   85.1706   12.7245 N.am    1  UNL1       -0.2824
      8 C          63.2279   85.8067   13.8532 C.2     1  UNL1        0.3046
      9 O          64.0054   87.0679   13.6185 O.2     1  UNL1       -0.2526
     10 N          63.2064   85.1817   15.2166 N.am    1  UNL1       -0.2567
     11 C          63.9624   85.8178   16.3453 C.3     1  UNL1        0.1168
     12 H          61.9617   84.3429   12.8786 H       1  UNL1        0.1514
     13 C          62.4290   83.9206   15.4513 C.3     1  UNL1        0.1414
     14 C          62.6572   82.7247   14.5750 C.ar    1  UNL1        0.0862
     15 C          61.6535   81.6537   14.2658 C.ar    1  UNL1        0.0533
     16 S          62.3052   80.6570   13.3538 S.2     1  UNL1       -0.0642
     17 C          63.7118   81.1119   13.0994 C.ar    1  UNL1        0.1342
     18 N          63.9293   82.3898   13.8541 N.ar    1  UNL1       -0.2389
     19 C          62.7451   85.5050    8.7917 C.3     1  UNL1        0.0022
     20 C          63.0015   85.0144   10.1858 C.3     1  UNL1        0.0270
     21 C          63.7658   83.7425   10.4046 C.3     1  UNL1        0.0022
     22 C          60.8898   89.8595   10.0077 C.3     1  UNL1        0.0459
     23 C          60.1615   89.1997    8.8744 C.ar    1  UNL1       -0.0205
     24 C          59.8787   89.9667    7.6168 C.ar    1  UNL1       -0.0042
     25 C          59.1504   89.3070    6.4836 C.ar    1  UNL1       -0.0003
     26 C          58.7048   87.8801    6.6080 C.ar    1  UNL1       -0.0000
     27 C          58.9875   87.1130    7.8657 C.ar    1  UNL1       -0.0003
     28 C          59.7158   87.7728    8.9989 C.ar    1  UNL1       -0.0042
     29 C          63.3259   90.7328   10.2370 C.3     1  UNL1        0.0216
     30 C          63.8935   91.2107   11.5406 C.3     1  UNL1        0.0217
     31 C          65.0564   92.1582   11.5500 C.3     1  UNL1        0.0792
     32 N          65.5010   92.7871   12.8372 N.am    1  UNL1       -0.2720
     33 C          66.9432   92.7223   13.2447 C.2     1  UNL1        0.4019
     34 O          67.9407   92.0286   12.3651 O.2     1  UNL1       -0.2264
     35 H          64.8463   93.2425   13.4145 H       1  UNL1        0.1527
     36 O          67.3878   93.3513   14.5319 O.3     1  UNL1       -0.4291
     37 C          66.9402   92.7746   15.8422 C.3     1  UNL1        0.2447
     38 C          65.6250   92.0597   15.9369 C.ar    1  UNL1        0.0714
     39 C          64.4786   92.4367   16.8278 C.ar    1  UNL1        0.1053
     40 N          63.3703   91.4522   16.5989 N.ar    1  UNL1       -0.2350
     41 C          63.8317   90.4667   15.5664 C.ar    1  UNL1        0.1343
     42 S          65.2251   90.8421   15.1574 S.2     1  UNL1       -0.0652
     43 C          65.7747   92.4766   10.2723 C.3     1  UNL1        0.0460
     44 C          66.2014   93.8853    9.9827 C.ar    1  UNL1       -0.0205
     45 C          67.3352   94.1458    9.0359 C.ar    1  UNL1       -0.0042
     46 C          67.7619   95.5544    8.7464 C.ar    1  UNL1       -0.0003
     47 C          67.0548   96.7024    9.4038 C.ar    1  UNL1       -0.0000
     48 C          65.9210   96.4418   10.3506 C.ar    1  UNL1       -0.0003
     49 C          65.4943   95.0332   10.6401 C.ar    1  UNL1       -0.0042
@<TRIPOS>BOND
     1    19    20    1
     2    20    21    1
     3    20     6    1
     4     6     7    1
     5     7     8   am
     6     8     9    2
     7     8    10   am
     8    10    11    1
     9    10    13    1
    10    13    14    1
    11    14    15   ar
    12    15    16   ar
    13    16    17   ar
    14    17    18   ar
    15     6     2    1
    16     2     3    2
    17     2     4   am
    18     4     1    1
    19     1    29    1
    20    29    30    1
    21    31    30    1
    22    31    43    1
    23    43    44    1
    24    44    45   ar
    25    45    46   ar
    26    46    47   ar
    27    47    48   ar
    28    48    49   ar
    29    31    32    1
    30    32    33   am
    31    33    34    2
    32    33    36    1
    33    36    37    1
    34    37    38    1
    35    38    39   ar
    36    39    40   ar
    37    40    41   ar
    38    41    42   ar
    39     1    22    1
    40    22    23    1
    41    23    24   ar
    42    24    25   ar
    43    25    26   ar
    44    26    27   ar
    45    27    28   ar
    46    18    14   ar
    47    49    44   ar
    48    42    38   ar
    49    28    23   ar
    50     7    12    1
    51     4     5    1
    52    32    35    1
@<TRIPOS>MOLECULE
*****
 49 52 0 0 0
SMALL
GASTEIGER

@<TRIPOS>ATOM
      1 C          62.1195   87.7369   11.0353 C.3     1  UNL1        0.0760
      2 C          62.6981   89.3254   13.0082 C.2     1  UNL1        0.2403
      3 O          61.2547   89.7196   13.1140 O.2     1  UNL1       -0.2733
      4 N          63.1305   88.3340   11.9688 N.am    1  UNL1       -0.3043
      5 H          64.0779   88.0753   11.8993 H       1  UNL1        0.1494
      6 C          63.7090   89.9225   13.9416 C.3     1  UNL1        0.1496
      7 N          64.8268   90.7628   13.3988 N.am    1  UNL1       -0.2824
      8 C          64.5864   91.6609   12.2216 C.2     1  UNL1        0.3046
      9 O          63.2283   91.7186   11.5873 O.2     1  UNL1       -0.2526
     10 N          65.7040   92.5011   11.6787 N.am    1  UNL1       -0.2567
     11 C          65.4637   93.3991   10.5015 C.3     1  UNL1        0.1168
     12 H          65.7181   90.7249   13.8151 H       1  UNL1        0.1514
     13 C          67.0621   92.4434   12.3130 C.3     1  UNL1        0.1414
     14 C          67.1969   92.5204   13.8050 C.ar    1  UNL1        0.0862
     15 C          68.4122   92.1470   14.6009 C.ar    1  UNL1        0.0533
     16 S          68.1065   92.3801   16.0508 S.2     1  UNL1       -0.0642
     17 C          66.7021   92.8977   16.1510 C.ar    1  UNL1        0.1342
     18 N          66.1400   92.9843   14.7630 N.ar    1  UNL1       -0.2389
     19 C          63.5557   90.8395   16.3677 C.3     1  UNL1        0.0022
     20 C          63.6023   89.6794   15.4179 C.3     1  UNL1        0.0270
     21 C          63.5422   88.2762   15.9445 C.3     1  UNL1        0.0022
     22 C          61.5528   86.3764   11.3143 C.3     1  UNL1        0.0459
     23 C          62.4570   85.2626   11.7522 C.ar    1  UNL1       -0.0205
     24 C          63.0269   84.3163   10.7375 C.ar    1  UNL1       -0.0042
     25 C          63.9312   83.2025   11.1755 C.ar    1  UNL1       -0.0003
     26 C          64.2656   83.0350   12.6281 C.ar    1  UNL1       -0.0000
     27 C          63.6957   83.9814   13.6428 C.ar    1  UNL1       -0.0003
     28 C          62.7914   85.0951   13.2049 C.ar    1  UNL1       -0.0042
     29 C          61.6753   88.5003    9.8229 C.3     1  UNL1        0.0216
     30 C          60.2140   88.6227    9.5076 C.3     1  UNL1        0.0217
     31 C          59.6028   87.7649    8.4395 C.3     1  UNL1        0.0792
     32 N          58.8268   88.3974    7.3224 N.am    1  UNL1       -0.2720
     33 C          59.3829   89.5916    6.6051 C.2     1  UNL1        0.4019
     34 O          60.7150   90.1534    7.0048 O.2     1  UNL1       -0.2264
     35 H          57.9524   88.0286    7.0601 H       1  UNL1        0.1527
     36 O          58.6069   90.2240    5.4880 O.3     1  UNL1       -0.4291
     37 C          58.8256   91.6682    5.1466 C.3     1  UNL1        0.2447
     38 C          59.8726   92.0514    4.1431 C.ar    1  UNL1        0.0714
     39 C          61.3155   91.6426    4.1745 C.ar    1  UNL1        0.1053
     40 N          61.9952   92.2492    2.9829 N.ar    1  UNL1       -0.2350
     41 C          60.9724   93.0329    2.2149 C.ar    1  UNL1        0.1343
     42 S          59.6605   92.9106    2.9320 S.2     1  UNL1       -0.0652
     43 C          59.7676   86.2748    8.4885 C.3     1  UNL1        0.0460
     44 C          60.8147   85.6080    7.6464 C.ar    1  UNL1       -0.0205
     45 C          60.4202   84.8821    6.3945 C.ar    1  UNL1       -0.0042
     46 C          61.4673   84.2153    5.5526 C.ar    1  UNL1       -0.0003
     47 C          62.9089   84.2744    5.9626 C.ar    1  UNL1       -0.0000
     48 C          63.3035   85.0003    7.2145 C.ar    1  UNL1       -0.0003
     49 C          62.2564   85.6671    8.0564 C.ar    1  UNL1       -0.0042
@<TRIPOS>BOND
     1    19    20    1
     2    20    21    1
     3    20     6    1
     4     6     7    1
     5     7     8   am
     6     8     9    2
     7     8    10   am
     8    10    11    1
     9    10    13    1
    10    13    14    1
    11    14    15   ar
    12    15    16   ar
    13    16    17   ar
    14    17    18   ar
    15     6     2    1
    16     2     3    2
    17     2     4   am
    18     4     1    1
    19     1    29    1
    20    29    30    1
    21    31    30    1
    22    31    43    1
    23    43    44    1
    24    44    45   ar
    25    45    46   ar
    26    46    47   ar
    27    47    48   ar
    28    48    49   ar
    29    31    32    1
    30    32    33   am
    31    33    34    2
    32    33    36    1
    33    36    37    1
    34    37    38    1
    35    38    39   ar
    36    39    40   ar
    37    40    41   ar
    38    41    42   ar
    39     1    22    1
    40    22    23    1
    41    23    24   ar
    42    24    25   ar
    43    25    26   ar
    44    26    27   ar
    45    27    28   ar
    46    18    14   ar
    47    49    44   ar
    48    42    38   ar
    49    28    23   ar
    50     7    12    1
    51     4     5    1
    52    32    35    1
@<TRIPOS>MOLECULE
*****
 49 52 0 0 0
SMALL
GASTEIGER

@<TRIPOS>ATOM
      1 C          63.0009   90.2442   12.2722 C.3     1  UNL1        0.0760
      2 C          63.7990   88.7339   14.2298 C.2     1  UNL1        0.2403
      3 O          65.1469   89.3906   14.1869 O.2     1  UNL1       -0.2733
      4 N          62.7260   89.1607   13.2724 N.am    1  UNL1       -0.3043
      5 H          61.8413   88.7297   13.3005 H       1  UNL1        0.1494
      6 C          63.5241   87.6504   15.2300 C.3     1  UNL1        0.1496
      7 N          63.6349   86.2102   14.8251 N.am    1  UNL1       -0.2824
      8 C          63.4391   85.8172   13.3908 C.2     1  UNL1        0.3046
      9 O          63.1325   86.8643   12.3614 O.2     1  UNL1       -0.2526
     10 N          63.5498   84.3772   12.9859 N.am    1  UNL1       -0.2567
     11 C          63.3541   83.9842   11.5516 C.3     1  UNL1        0.1168
     12 H          63.8361   85.5230   15.5008 H       1  UNL1        0.1514
     13 C          63.8564   83.3302   14.0154 C.3     1  UNL1        0.1414
     14 C          63.1120   82.0279   14.0054 C.ar    1  UNL1        0.0862
     15 C          61.6331   81.8562   14.1886 C.ar    1  UNL1        0.0533
     16 S          61.3229   80.3910   14.1069 S.2     1  UNL1       -0.0642
     17 C          62.6101   79.6570   13.8732 C.ar    1  UNL1        0.1342
     18 N          63.7157   80.6687   13.8104 N.ar    1  UNL1       -0.2389
     19 C          62.7583   86.9279   17.6052 C.3     1  UNL1        0.0022
     20 C          63.1384   88.0069   16.6350 C.3     1  UNL1        0.0270
     21 C          63.1327   89.4425   17.0698 C.3     1  UNL1        0.0022
     22 C          63.6352   91.5296   12.7143 C.3     1  UNL1        0.0459
     23 C          64.9329   91.9734   12.1069 C.ar    1  UNL1       -0.0205
     24 C          66.1948   91.9265   12.9165 C.ar    1  UNL1       -0.0042
     25 C          67.4925   92.3702   12.3090 C.ar    1  UNL1       -0.0003
     26 C          67.5284   92.8608   10.8920 C.ar    1  UNL1       -0.0000
     27 C          66.2665   92.9077   10.0824 C.ar    1  UNL1       -0.0003
     28 C          64.9688   92.4640   10.6898 C.ar    1  UNL1       -0.0042
     29 C          62.6416   90.0423   10.8300 C.3     1  UNL1        0.0216
     30 C          61.2065   90.1069   10.3985 C.3     1  UNL1        0.0217
     31 C          60.7038   89.1872    9.3253 C.3     1  UNL1        0.0792
     32 N          60.4329   89.7182    7.9489 N.am    1  UNL1       -0.2720
     33 C          59.2349   89.2404    7.1830 C.2     1  UNL1        0.4019
     34 O          58.3079   88.2315    7.7936 O.2     1  UNL1       -0.2264
     35 H          61.0413   90.3804    7.5481 H       1  UNL1        0.1527
     36 O          58.9640   89.7714    5.8065 O.3     1  UNL1       -0.4291
     37 C          59.1066   91.2382    5.5270 C.3     1  UNL1        0.2447
     38 C          60.0567   91.7107    4.4668 C.ar    1  UNL1        0.0714
     39 C          61.4718   91.2492    4.2818 C.ar    1  UNL1        0.1053
     40 N          62.0482   91.9810    3.1061 N.ar    1  UNL1       -0.2350
     41 C          60.9892   92.8949    2.5644 C.ar    1  UNL1        0.1343
     42 S          59.7584   92.7278    3.4054 S.2     1  UNL1       -0.0652
     43 C          60.4721   87.7366    9.6286 C.3     1  UNL1        0.0460
     44 C          61.1217   86.6807    8.7841 C.ar    1  UNL1       -0.0205
     45 C          60.3311   85.9814    7.7183 C.ar    1  UNL1       -0.0042
     46 C          60.9807   84.9255    6.8738 C.ar    1  UNL1       -0.0003
     47 C          62.4208   84.5690    7.0951 C.ar    1  UNL1       -0.0000
     48 C          63.2114   85.2684    8.1609 C.ar    1  UNL1       -0.0003
     49 C          62.5618   86.3242    9.0053 C.ar    1  UNL1       -0.0042
@<TRIPOS>BOND
     1    19    20    1
     2    20    21    1
     3    20     6    1
     4     6     7    1
     5     7     8   am
     6     8     9    2
     7     8    10   am
     8    10    11    1
     9    10    13    1
    10    13    14    1
    11    14    15   ar
    12    15    16   ar
    13    16    17   ar
    14    17    18   ar
    15     6     2    1
    16     2     3    2
    17     2     4   am
    18     4     1    1
    19     1    29    1
    20    29    30    1
    21    31    30    1
    22    31    43    1
    23    43    44    1
    24    44    45   ar
    25    45    46   ar
    26    46    47   ar
    27    47    48   ar
    28    48    49   ar
    29    31    32    1
    30    32    33   am
    31    33    34    2
    32    33    36    1
    33    36    37    1
    34    37    38    1
    35    38    39   ar
    36    39    40   ar
    37    40    41   ar
    38    41    42   ar
    39     1    22    1
    40    22    23    1
    41    23    24   ar
    42    24    25   ar
    43    25    26   ar
    44    26    27   ar
    45    27    28   ar
    46    18    14   ar
    47    49    44   ar
    48    42    38   ar
    49    28    23   ar
    50     7    12    1
    51     4     5    1
    52    32    35    1
@<TRIPOS>MOLECULE
*****
 49 52 0 0 0
SMALL
GASTEIGER

@<TRIPOS>ATOM
      1 C          61.8159   88.9391   11.4985 C.3     1  UNL1        0.0760
      2 C          62.5896   86.5548   10.8154 C.2     1  UNL1        0.2403
      3 O          62.7466   87.0125    9.3956 O.2     1  UNL1       -0.2733
      4 N          62.1242   87.5181   11.8669 N.am    1  UNL1       -0.3043
      5 H          62.0211   87.2177   12.7987 H       1  UNL1        0.1494
      6 C          62.8979   85.1338   11.1838 C.3     1  UNL1        0.1496
      7 N          62.6281   84.6445   12.5759 N.am    1  UNL1       -0.2824
      8 C          63.2347   85.3530   13.7507 C.2     1  UNL1        0.3046
      9 O          64.1110   86.5509   13.5333 O.2     1  UNL1       -0.2526
     10 N          62.9649   84.8638   15.1427 N.am    1  UNL1       -0.2567
     11 C          63.5715   85.5723   16.3174 C.3     1  UNL1        0.1168
     12 H          62.0529   83.8583   12.7185 H       1  UNL1        0.1514
     13 C          62.0886   83.6660   15.3600 C.3     1  UNL1        0.1414
     14 C          62.3738   82.3860   14.6317 C.ar    1  UNL1        0.0862
     15 C          61.3561   81.3736   14.1964 C.ar    1  UNL1        0.0533
     16 S          62.0801   80.2556   13.5065 S.2     1  UNL1       -0.0642
     17 C          63.5453   80.5770   13.5154 C.ar    1  UNL1        0.1342
     18 N          63.7268   81.8937   14.2108 N.ar    1  UNL1       -0.2389
     19 C          64.3096   83.0336   10.5955 C.3     1  UNL1        0.0022
     20 C          63.4760   84.2022   10.1602 C.3     1  UNL1        0.0270
     21 C          63.2204   84.4391    8.7013 C.3     1  UNL1        0.0022
     22 C          60.4591   89.2994   10.9699 C.3     1  UNL1        0.0459
     23 C          60.0099   88.7761    9.6378 C.ar    1  UNL1       -0.0205
     24 C          59.4957   87.3721    9.5183 C.ar    1  UNL1       -0.0042
     25 C          59.0466   86.8488    8.1862 C.ar    1  UNL1       -0.0003
     26 C          59.1116   87.7294    6.9737 C.ar    1  UNL1       -0.0000
     27 C          59.6257   89.1335    7.0933 C.ar    1  UNL1       -0.0003
     28 C          60.0749   89.6569    8.4253 C.ar    1  UNL1       -0.0042
     29 C          62.8643   89.9998   11.6586 C.3     1  UNL1        0.0216
     30 C          63.0611   90.6651   12.9885 C.3     1  UNL1        0.0217
     31 C          64.3433   91.3851   13.2846 C.3     1  UNL1        0.0792
     32 N          64.5694   92.7666   12.7457 N.am    1  UNL1       -0.2720
     33 C          64.9514   92.9575   11.3077 C.2     1  UNL1        0.4019
     34 O          65.1074   91.7670   10.4088 O.2     1  UNL1       -0.2264
     35 H          64.4670   93.5480   13.3358 H       1  UNL1        0.1527
     36 O          65.1775   94.3390   10.7689 O.3     1  UNL1       -0.4291
     37 C          66.5692   94.8042   10.4577 C.3     1  UNL1        0.2447
     38 C          67.4768   93.9495    9.6236 C.ar    1  UNL1        0.0714
     39 C          67.7244   94.1012    8.1520 C.ar    1  UNL1        0.1053
     40 N          68.6968   93.0385    7.7335 N.ar    1  UNL1       -0.2350
     41 C          69.0501   92.2299    8.9465 C.ar    1  UNL1        0.1343
     42 S          68.2961   92.7930   10.1146 S.2     1  UNL1       -0.0652
     43 C          65.3993   90.7236   14.1195 C.3     1  UNL1        0.0460
     44 C          66.5748   91.5169   14.6086 C.ar    1  UNL1       -0.0205
     45 C          67.8540   91.5226   13.8253 C.ar    1  UNL1       -0.0042
     46 C          69.0293   92.3158   14.3144 C.ar    1  UNL1       -0.0003
     47 C          68.9256   93.1032   15.5869 C.ar    1  UNL1       -0.0000
     48 C          67.6464   93.0974   16.3703 C.ar    1  UNL1       -0.0003
     49 C          66.4710   92.3043   15.8811 C.ar    1  UNL1       -0.0042
@<TRIPOS>BOND
     1    19    20    1
     2    20    21    1
     3    20     6    1
     4     6     7    1
     5     7     8   am
     6     8     9    2
     7     8    10   am
     8    10    11    1
     9    10    13    1
    10    13    14    1
    11    14    15   ar
    12    15    16   ar
    13    16    17   ar
    14    17    18   ar
    15     6     2    1
    16     2     3    2
    17     2     4   am
    18     4     1    1
    19     1    29    1
    20    29    30    1
    21    31    30    1
    22    31    43    1
    23    43    44    1
    24    44    45   ar
    25    45    46   ar
    26    46    47   ar
    27    47    48   ar
    28    48    49   ar
    29    31    32    1
    30    32    33   am
    31    33    34    2
    32    33    36    1
    33    36    37    1
    34    37    38    1
    35    38    39   ar
    36    39    40   ar
    37    40    41   ar
    38    41    42   ar
    39     1    22    1
    40    22    23    1
    41    23    24   ar
    42    24    25   ar
    43    25    26   ar
    44    26    27   ar
    45    27    28   ar
    46    18    14   ar
    47    49    44   ar
    48    42    38   ar
    49    28    23   ar
    50     7    12    1
    51     4     5    1
    52    32    35    1
@<TRIPOS>MOLECULE
*****
 49 52 0 0 0
SMALL
GASTEIGER

@<TRIPOS>ATOM
      1 C          61.6513   85.9838   11.4075 C.3     1  UNL1        0.0760
      2 C          63.0196   86.0277   13.6157 C.2     1  UNL1        0.2403
      3 O          62.0857   85.0181   14.2145 O.2     1  UNL1       -0.2733
      4 N          62.8024   86.5106   12.2122 N.am    1  UNL1       -0.3043
      5 H          63.4153   87.1732   11.8192 H       1  UNL1        0.1494
      6 C          64.1707   86.5545   14.4204 C.3     1  UNL1        0.1496
      7 N          64.5005   88.0175   14.3889 N.am    1  UNL1       -0.2824
      8 C          63.9290   88.9376   15.4266 C.2     1  UNL1        0.3046
      9 O          63.0277   88.3947   16.4958 O.2     1  UNL1       -0.2526
     10 N          64.2588   90.4006   15.3952 N.am    1  UNL1       -0.2567
     11 C          63.6873   91.3207   16.4329 C.3     1  UNL1        0.1168
     12 H          65.0920   88.3738   13.6872 H       1  UNL1        0.1514
     13 C          65.1600   90.9434   14.3261 C.3     1  UNL1        0.1414
     14 C          66.2697   91.8857   14.6877 C.ar    1  UNL1        0.0862
     15 C          67.5746   91.5085   15.3238 C.ar    1  UNL1        0.0533
     16 S          68.3806   92.7604   15.5059 S.2     1  UNL1       -0.0642
     17 C          67.5737   93.9114   14.9822 C.ar    1  UNL1        0.1342
     18 N          66.2691   93.3708   14.4765 N.ar    1  UNL1       -0.2389
     19 C          66.3368   85.1638   14.7720 C.3     1  UNL1        0.0022
     20 C          64.9919   85.6184   15.2565 C.3     1  UNL1        0.0270
     21 C          64.4683   85.1368   16.5770 C.3     1  UNL1        0.0022
     22 C          61.7394   84.6285   10.7706 C.3     1  UNL1        0.0459
     23 C          62.6355   83.5798   11.3599 C.ar    1  UNL1       -0.0205
     24 C          64.1065   83.5994   11.0671 C.ar    1  UNL1       -0.0042
     25 C          65.0025   82.5507   11.6563 C.ar    1  UNL1       -0.0003
     26 C          64.4276   81.4823   12.5384 C.ar    1  UNL1       -0.0000
     27 C          62.9566   81.4627   12.8312 C.ar    1  UNL1       -0.0003
     28 C          62.0605   82.5114   12.2420 C.ar    1  UNL1       -0.0042
     29 C          60.4122   86.8122   11.2397 C.3     1  UNL1        0.0216
     30 C          60.5213   88.2980   11.0653 C.3     1  UNL1        0.0217
     31 C          60.8140   88.8748    9.7118 C.3     1  UNL1        0.0792
     32 N          61.5648   90.1681    9.5941 N.am    1  UNL1       -0.2720
     33 C          62.7479   90.4315   10.4778 C.2     1  UNL1        0.4019
     34 O          63.1801   89.4018   11.4792 O.2     1  UNL1       -0.2264
     35 H          61.2811   90.8439    8.9369 H       1  UNL1        0.1527
     36 O          63.4987   91.7248   10.3601 O.3     1  UNL1       -0.4291
     37 C          64.7091   91.9695   11.2116 C.3     1  UNL1        0.2447
     38 C          65.7864   92.8979   10.7347 C.ar    1  UNL1        0.0714
     39 C          67.1658   92.4990   10.3010 C.ar    1  UNL1        0.1053
     40 N          67.9054   93.7427    9.9059 N.ar    1  UNL1       -0.2350
     41 C          66.9831   94.9104   10.0954 C.ar    1  UNL1        0.1343
     42 S          65.6735   94.3882   10.6076 S.2     1  UNL1       -0.0652
     43 C          60.3558   88.1584    8.4762 C.3     1  UNL1        0.0460
     44 C          61.0793   86.9300    8.0097 C.ar    1  UNL1       -0.0205
     45 C          60.3804   85.9368    7.1294 C.ar    1  UNL1       -0.0042
     46 C          61.1039   84.7084    6.6630 C.ar    1  UNL1       -0.0003
     47 C          62.5264   84.4733    7.0767 C.ar    1  UNL1       -0.0000
     48 C          63.2254   85.4665    7.9570 C.ar    1  UNL1       -0.0003
     49 C          62.5018   86.6949    8.4235 C.ar    1  UNL1       -0.0042
@<TRIPOS>BOND
     1    19    20    1
     2    20    21    1
     3    20     6    1
     4     6     7    1
     5     7     8   am
     6     8     9    2
     7     8    10   am
     8    10    11    1
     9    10    13    1
    10    13    14    1
    11    14    15   ar
    12    15    16   ar
    13    16    17   ar
    14    17    18   ar
    15     6     2    1
    16     2     3    2
    17     2     4   am
    18     4     1    1
    19     1    29    1
    20    29    30    1
    21    31    30    1
    22    31    43    1
    23    43    44    1
    24    44    45   ar
    25    45    46   ar
    26    46    47   ar
    27    47    48   ar
    28    48    49   ar
    29    31    32    1
    30    32    33   am
    31    33    34    2
    32    33    36    1
    33    36    37    1
    34    37    38    1
    35    38    39   ar
    36    39    40   ar
    37    40    41   ar
    38    41    42   ar
    39     1    22    1
    40    22    23    1
    41    23    24   ar
    42    24    25   ar
    43    25    26   ar
    44    26    27   ar
    45    27    28   ar
    46    18    14   ar
    47    49    44   ar
    48    42    38   ar
    49    28    23   ar
    50     7    12    1
    51     4     5    1
    52    32    35    1
@<TRIPOS>MOLECULE
*****
 49 52 0 0 0
SMALL
GASTEIGER

@<TRIPOS>ATOM
      1 C          64.0234   85.2566   14.0992 C.3     1  UNL1        0.0760
      2 C          62.6356   85.4802   11.9142 C.2     1  UNL1        0.2403
      3 O          61.3690   85.3259   12.7029 O.2     1  UNL1       -0.2733
      4 N          63.9628   85.4455   12.6124 N.am    1  UNL1       -0.3043
      5 H          64.7941   85.5468   12.0947 H       1  UNL1        0.1494
      6 C          62.5749   85.6691   10.4274 C.3     1  UNL1        0.1496
      7 N          61.8016   86.8165    9.8481 N.am    1  UNL1       -0.2824
      8 C          60.7670   86.5662    8.7913 C.2     1  UNL1        0.3046
      9 O          60.5056   85.1683    8.3139 O.2     1  UNL1       -0.2526
     10 N          59.9937   87.7135    8.2120 N.am    1  UNL1       -0.2567
     11 C          58.9590   87.4631    7.1552 C.3     1  UNL1        0.1168
     12 H          61.9732   87.7339   10.1615 H       1  UNL1        0.1514
     13 C          60.2551   89.1112    8.6895 C.3     1  UNL1        0.1414
     14 C          59.8024   89.5341   10.0556 C.ar    1  UNL1        0.0862
     15 C          59.6184   88.6340   11.2414 C.ar    1  UNL1        0.0533
     16 S          59.1565   89.4749   12.3944 S.2     1  UNL1       -0.0642
     17 C          59.0550   90.8948   11.9213 C.ar    1  UNL1        0.1342
     18 N          59.4542   90.9313   10.4758 N.ar    1  UNL1       -0.2389
     19 C          63.7648   83.3907   10.0490 C.3     1  UNL1        0.0022
     20 C          63.2876   84.7107    9.5199 C.3     1  UNL1        0.0270
     21 C          63.5230   85.0724    8.0833 C.3     1  UNL1        0.0022
     22 C          64.2906   83.8962   14.6720 C.3     1  UNL1        0.0459
     23 C          63.5079   82.7117   14.1882 C.ar    1  UNL1       -0.0205
     24 C          64.1006   81.7878   13.1660 C.ar    1  UNL1       -0.0042
     25 C          63.3178   80.6032   12.6821 C.ar    1  UNL1       -0.0003
     26 C          61.9423   80.3426   13.2205 C.ar    1  UNL1       -0.0000
     27 C          61.3495   81.2665   14.2428 C.ar    1  UNL1       -0.0003
     28 C          62.1322   82.4511   14.7267 C.ar    1  UNL1       -0.0042
     29 C          63.8168   86.4279   15.0131 C.3     1  UNL1        0.0216
     30 C          64.7703   87.5852   14.9763 C.3     1  UNL1        0.0217
     31 C          64.3472   88.8863   14.3615 C.3     1  UNL1        0.0792
     32 N          64.7001   90.1817   15.0304 N.am    1  UNL1       -0.2720
     33 C          63.7711   90.7792   16.0453 C.2     1  UNL1        0.4019
     34 O          62.4893   90.0813   16.3914 O.2     1  UNL1       -0.2264
     35 H          65.5414   90.6398   14.8032 H       1  UNL1        0.1527
     36 O          64.1240   92.0746   16.7142 O.3     1  UNL1       -0.4291
     37 C          65.5471   92.3598   17.0930 C.3     1  UNL1        0.2447
     38 C          66.5691   92.6211   16.0267 C.ar    1  UNL1        0.0714
     39 C          66.3121   93.2706   14.6993 C.ar    1  UNL1        0.1053
     40 N          67.6118   93.3297   13.9527 N.ar    1  UNL1       -0.2350
     41 C          68.6721   92.7166   14.8187 C.ar    1  UNL1        0.1343
     42 S          68.0276   92.2787   16.1004 S.2     1  UNL1       -0.0652
     43 C          63.5713   88.8921   13.0778 C.3     1  UNL1        0.0460
     44 C          63.7292   90.0281   12.1110 C.ar    1  UNL1       -0.0205
     45 C          64.6658   91.1565   12.4263 C.ar    1  UNL1       -0.0042
     46 C          64.8237   92.2924   11.4595 C.ar    1  UNL1       -0.0003
     47 C          64.0450   92.2999   10.1774 C.ar    1  UNL1       -0.0000
     48 C          63.1085   91.1715    9.8622 C.ar    1  UNL1       -0.0003
     49 C          62.9506   90.0355   10.8289 C.ar    1  UNL1       -0.0042
@<TRIPOS>BOND
     1    19    20    1
     2    20    21    1
     3    20     6    1
     4     6     7    1
     5     7     8   am
     6     8     9    2
     7     8    10   am
     8    10    11    1
     9    10    13    1
    10    13    14    1
    11    14    15   ar
    12    15    16   ar
    13    16    17   ar
    14    17    18   ar
    15     6     2    1
    16     2     3    2
    17     2     4   am
    18     4     1    1
    19     1    29    1
    20    29    30    1
    21    31    30    1
    22    31    43    1
    23    43    44    1
    24    44    45   ar
    25    45    46   ar
    26    46    47   ar
    27    47    48   ar
    28    48    49   ar
    29    31    32    1
    30    32    33   am
    31    33    34    2
    32    33    36    1
    33    36    37    1
    34    37    38    1
    35    38    39   ar
    36    39    40   ar
    37    40    41   ar
    38    41    42   ar
    39     1    22    1
    40    22    23    1
    41    23    24   ar
    42    24    25   ar
    43    25    26   ar
    44    26    27   ar
    45    27    28   ar
    46    18    14   ar
    47    49    44   ar
    48    42    38   ar
    49    28    23   ar
    50     7    12    1
    51     4     5    1
    52    32    35    1
