@<TRIPOS>MOLECULE
*****
 45 50 0 0 0
SMALL
GASTEIGER

@<TRIPOS>ATOM
      1 C          59.2045   89.8581    6.3845 C.2     1  UNL1        0.2461
      2 O          57.8368   89.2608    6.5349 O.2     1  UNL1       -0.2701
      3 N          60.3030   89.4634    7.3266 N.am    1  UNL1       -0.2964
      4 H          61.2006   89.8555    7.2279 H       1  UNL1        0.1501
      5 C          63.7222   91.6948    3.0667 C.3     1  UNL1        0.1304
      6 N          62.3716   92.3172    2.8708 N.ar    1  UNL1       -0.3254
      7 C          62.0326   93.3965    1.8858 C.ar    1  UNL1        0.0559
      8 C          60.5744   93.7159    2.0319 C.ar    1  UNL1       -0.0053
      9 C          60.0120   92.8341    3.1071 C.ar    1  UNL1        0.0132
     10 C          58.6321   92.7066    3.6811 C.ar    1  UNL1        0.0013
     11 C          58.3629   91.7146    4.7735 C.ar    1  UNL1        0.0046
     12 C          59.4737   90.8501    5.2920 C.ar    1  UNL1        0.0548
     13 C          60.8537   90.9776    4.7181 C.ar    1  UNL1        0.0217
     14 C          61.1228   91.9696    3.6257 C.ar    1  UNL1        0.0598
     15 C          62.9848   94.0429    0.9237 C.ar    1  UNL1        0.0155
     16 C          62.8889   93.7420   -0.5426 C.ar    1  UNL1        0.0023
     17 C          63.8410   94.3883   -1.5047 C.ar    1  UNL1        0.0114
     18 C          64.8891   95.3356   -1.0005 C.ar    1  UNL1        0.0577
     19 CL         65.8412   95.9820   -1.9626 Cl      1  UNL1       -0.0822
     20 C          64.9849   95.6365    0.4659 C.ar    1  UNL1        0.0114
     21 C          64.0328   94.9902    1.4280 C.ar    1  UNL1        0.0023
     22 C          59.8121   94.7378    1.2415 C.3     1  UNL1        0.0238
     23 C          58.9079   94.4577    0.0780 C.3     1  UNL1        0.0044
     24 C          58.3572   95.7660   -0.4069 C.3     1  UNL1        0.0003
     25 C          58.9212   96.8548    0.4572 C.3     1  UNL1        0.0003
     26 C          59.8203   96.2194    1.4759 C.3     1  UNL1        0.0044
     27 C          60.0337   88.4714    8.4191 C.3     1  UNL1        0.1260
     28 C          59.2576   87.6222    7.4567 C.3     1  UNL1        0.0270
     29 C          58.9884   86.6302    8.5491 C.3     1  UNL1        0.0043
     30 C          59.7645   87.4794    9.5115 C.3     1  UNL1        0.0270
     31 C          60.8098   89.3207    9.3816 C.2     1  UNL1        0.2419
     32 O          60.1859   90.5533    9.9660 O.2     1  UNL1       -0.2731
     33 N          62.2099   88.9374    9.7597 N.am    1  UNL1       -0.2826
     34 H          62.6194   88.1284    9.3762 H       1  UNL1        0.1549
     35 C          62.9860   89.7867   10.7222 C.ar    1  UNL1        0.0503
     36 C          63.6233   91.0609   10.2528 C.ar    1  UNL1        0.0147
     37 C          64.3994   91.9102   11.2153 C.ar    1  UNL1        0.0013
     38 C          64.5381   91.4854   12.6472 C.ar    1  UNL1        0.0001
     39 C          63.9008   90.2113   13.1166 C.ar    1  UNL1        0.0013
     40 C          63.1247   89.3619   12.1541 C.ar    1  UNL1        0.0147
     41 C          65.3142   92.3347   13.6096 C.2     1  UNL1        0.0012
     42 C          66.5933   91.8205   14.2009 C.2     1  UNL1        0.0151
     43 C          67.3693   92.6699   15.1633 C.2     1  UNL1        0.0729
     44 O          68.7651   93.1029   14.8247 O.co2   1  UNL1       -0.5446
     45 O          66.7498   93.0862   16.4644 O.co2   1  UNL1       -0.5446
@<TRIPOS>UNITY_ATOM_ATTR
44 1
charge -1
@<TRIPOS>BOND
     1     5     6    1
     2     6     7   ar
     3     7    15    1
     4    15    16   ar
     5    16    17   ar
     6    17    18   ar
     7    18    19    1
     8    18    20   ar
     9    20    21   ar
    10     7     8   ar
    11     8    22    1
    12    22    23    1
    13    23    24    1
    14    24    25    1
    15    25    26    1
    16     8     9   ar
    17     9    10   ar
    18    10    11   ar
    19    11    12   ar
    20    12     1    1
    21     1     2    2
    22     1     3   am
    23     3    27    1
    24    27    31    1
    25    31    32    2
    26    31    33   am
    27    33    35    1
    28    35    36   ar
    29    36    37   ar
    30    37    38   ar
    31    38    41    1
    32    41    42    2
    33    42    43    1
    34    43    44   ar
    35    43    45   ar
    36    38    39   ar
    37    39    40   ar
    38    27    28    1
    39    28    29    1
    40    29    30    1
    41    12    13   ar
    42    13    14   ar
    43    14     6   ar
    44    21    15   ar
    45    26    22    1
    46    14     9   ar
    47    30    27    1
    48    40    35   ar
    49     3     4    1
    50    33    34    1
