@<TRIPOS>MOLECULE
*****
 33 35 0 0 0
SMALL
GASTEIGER

@<TRIPOS>ATOM
      1 C          64.2722   90.1394   14.3880 C.ar    1  UNL1        0.0267
      2 C          64.2686   88.7574   13.8050 C.ar    1  UNL1        0.0144
      3 C          63.8155   87.5939   14.6362 C.ar    1  UNL1        0.0505
      4 C          63.3659   87.8125   16.0505 C.ar    1  UNL1        0.0170
      5 C          63.3695   89.1945   16.6335 C.ar    1  UNL1        0.0306
      6 C          63.8226   90.3580   15.8023 C.ar    1  UNL1        0.1379
      7 F          63.8262   91.7401   16.3853 F       1  UNL1       -0.2044
      8 C          63.4889   90.9107   12.8036 C.3     1  UNL1        0.0292
      9 C          64.7254   91.3030   13.5568 C.3     1  UNL1        0.1134
     10 C          65.8045   91.2912   14.5986 C.3     1  UNL1        0.0794
     11 C          66.9073   92.3066   14.5476 C.3     1  UNL1        0.2649
     12 O          66.9310   93.3339   13.4548 O.2     1  UNL1       -0.4449
     13 C          65.8519   93.3457   12.4130 C.2     1  UNL1        0.2769
     14 N          65.8756   94.3730   11.3202 N.pl3   1  UNL1       -0.3133
     15 N          64.7491   92.3302   12.4640 N.2     1  UNL1       -0.2241
     16 H          66.5994   95.0395   11.2867 H       1  UNL1        0.1466
     17 H          65.1673   94.3807   10.6364 H       1  UNL1        0.1466
     18 C          67.9864   92.2948   15.5895 C.3     1  UNL1        0.4342
     19 F          69.0656   92.2830   16.6312 F       1  UNL1       -0.1664
     20 F          69.0275   92.2494   14.5105 F       1  UNL1       -0.1664
     21 F          66.9453   92.3403   16.6683 F       1  UNL1       -0.1664
     22 N          63.8119   86.2118   14.0532 N.am    1  UNL1       -0.2791
     23 C          63.1076   85.9471   12.7556 C.2     1  UNL1        0.2672
     24 O          62.4069   87.0644   12.0409 O.2     1  UNL1       -0.2682
     25 H          64.2718   85.4785   14.5223 H       1  UNL1        0.1552
     26 C          63.1040   84.5650   12.1726 C.ar    1  UNL1        0.1348
     27 C          63.5747   84.3433   10.7657 C.ar    1  UNL1        0.0245
     28 C          63.5711   82.9612   10.1827 C.ar    1  UNL1        0.0135
     29 C          63.0968   81.8009   11.0066 C.ar    1  UNL1        0.0876
     30 C          62.6261   82.0227   12.4134 C.ar    1  UNL1        0.1092
     31 N          62.6297   83.4047   12.9964 N.ar    1  UNL1       -0.2385
     32 C          63.0932   80.4189   10.4235 C.1     1  UNL1        0.1020
     33 N          63.0896   79.0368    9.8405 N.1     1  UNL1       -0.1908
@<TRIPOS>BOND
     1     9     8    1
     2     9     1    1
     3     1     2   ar
     4     2     3   ar
     5     3    22    1
     6    22    23   am
     7    23    24    2
     8    23    26    1
     9    26    27   ar
    10    27    28   ar
    11    28    29   ar
    12    29    32    1
    13    32    33    3
    14    29    30   ar
    15    30    31   ar
    16     3     4   ar
    17     4     5   ar
    18     5     6   ar
    19     6     7    1
    20     9    10    1
    21    10    11    1
    22    11    18    1
    23    18    19    1
    24    18    20    1
    25    18    21    1
    26    11    12    1
    27    12    13    1
    28    13    14    1
    29    13    15    2
    30    15     9    1
    31     6     1   ar
    32    31    26   ar
    33    22    25    1
    34    14    16    1
    35    14    17    1
@<TRIPOS>MOLECULE
*****
 33 35 0 0 0
SMALL
GASTEIGER

@<TRIPOS>ATOM
      1 C          64.3948   89.8481   14.6167 C.ar    1  UNL1        0.0267
      2 C          64.3354   88.4369   14.1119 C.ar    1  UNL1        0.0144
      3 C          63.7193   87.3629   14.9587 C.ar    1  UNL1        0.0505
      4 C          63.1627   87.7002   16.3101 C.ar    1  UNL1        0.0170
      5 C          63.2222   89.1114   16.8148 C.ar    1  UNL1        0.0306
      6 C          63.8382   90.1854   15.9681 C.ar    1  UNL1        0.1379
      7 F          63.8977   91.5968   16.4728 F       1  UNL1       -0.2044
      8 C          65.9513   90.9402   14.9384 C.3     1  UNL1        0.0292
      9 C          65.0109   90.9222   13.7699 C.3     1  UNL1        0.1134
     10 C          63.8566   90.5312   12.8955 C.3     1  UNL1        0.0794
     11 C          63.6449   91.2205   11.5802 C.3     1  UNL1        0.2649
     12 O          64.5876   92.3008   11.1393 O.2     1  UNL1       -0.4449
     13 C          65.7419   92.6918   12.0137 C.2     1  UNL1        0.2769
     14 N          66.6846   93.7721   11.5728 N.pl3   1  UNL1       -0.3133
     15 N          65.9536   92.0025   13.3290 N.2     1  UNL1       -0.2241
     16 H          66.5456   94.2245   10.7095 H       1  UNL1        0.1466
     17 H          67.4422   94.0287   12.1468 H       1  UNL1        0.1466
     18 C          62.4905   90.8295   10.7058 C.3     1  UNL1        0.4342
     19 F          61.3361   90.4384    9.8315 F       1  UNL1       -0.1664
     20 F          61.8676   90.0958   11.8564 F       1  UNL1       -0.1664
     21 F          63.1134   91.5631    9.5553 F       1  UNL1       -0.1664
     22 N          63.6599   85.9516   14.4539 N.am    1  UNL1       -0.2791
     23 C          63.1759   85.6727   13.0618 C.2     1  UNL1        0.2672
     24 O          62.7513   86.8051   12.1744 O.2     1  UNL1       -0.2682
     25 H          63.9385   85.2083   15.0364 H       1  UNL1        0.1552
     26 C          63.1164   84.2614   12.5571 C.ar    1  UNL1        0.1348
     27 C          63.6406   83.9307   11.1912 C.ar    1  UNL1        0.0245
     28 C          63.5812   82.5194   10.6865 C.ar    1  UNL1        0.0135
     29 C          62.9974   81.4388   11.5477 C.ar    1  UNL1        0.0876
     30 C          62.4732   81.7696   12.9136 C.ar    1  UNL1        0.1092
     31 N          62.5327   83.1808   13.4183 N.ar    1  UNL1       -0.2385
     32 C          62.9380   80.0276   11.0429 C.1     1  UNL1        0.1020
     33 N          62.8785   78.6163   10.5381 N.1     1  UNL1       -0.1908
@<TRIPOS>BOND
     1     9     8    1
     2     9     1    1
     3     1     2   ar
     4     2     3   ar
     5     3    22    1
     6    22    23   am
     7    23    24    2
     8    23    26    1
     9    26    27   ar
    10    27    28   ar
    11    28    29   ar
    12    29    32    1
    13    32    33    3
    14    29    30   ar
    15    30    31   ar
    16     3     4   ar
    17     4     5   ar
    18     5     6   ar
    19     6     7    1
    20     9    10    1
    21    10    11    1
    22    11    18    1
    23    18    19    1
    24    18    20    1
    25    18    21    1
    26    11    12    1
    27    12    13    1
    28    13    14    1
    29    13    15    2
    30    15     9    1
    31     6     1   ar
    32    31    26   ar
    33    22    25    1
    34    14    16    1
    35    14    17    1
@<TRIPOS>MOLECULE
*****
 33 35 0 0 0
SMALL
GASTEIGER

@<TRIPOS>ATOM
      1 C          63.7341   86.1420   15.0147 C.ar    1  UNL1        0.0267
      2 C          64.3676   87.3313   14.3557 C.ar    1  UNL1        0.0144
      3 C          64.2477   88.6886   14.9829 C.ar    1  UNL1        0.0505
      4 C          63.4943   88.8566   16.2691 C.ar    1  UNL1        0.0170
      5 C          62.8608   87.6673   16.9281 C.ar    1  UNL1        0.0306
      6 C          62.9808   86.3100   16.3009 C.ar    1  UNL1        0.1379
      7 F          62.3473   85.1206   16.9599 F       1  UNL1       -0.2044
      8 C          64.5387   84.5279   15.6973 C.3     1  UNL1        0.0292
      9 C          63.8540   84.7847   14.3875 C.3     1  UNL1        0.1134
     10 C          63.1278   85.5129   13.2957 C.3     1  UNL1        0.0794
     11 C          62.7591   84.7946   12.0315 C.3     1  UNL1        0.2649
     12 O          63.1168   83.3480   11.8592 O.2     1  UNL1       -0.4449
     13 C          63.8431   82.6198   12.9511 C.2     1  UNL1        0.2769
     14 N          64.2008   81.1733   12.7788 N.pl3   1  UNL1       -0.3133
     15 N          64.2117   83.3381   14.2153 N.2     1  UNL1       -0.2241
     16 H          63.9589   80.7019   11.9491 H       1  UNL1        0.1466
     17 H          64.6775   80.6954   13.4954 H       1  UNL1        0.1466
     18 C          62.0328   85.5228   10.9396 C.3     1  UNL1        0.4342
     19 F          61.3066   86.2510    9.8477 F       1  UNL1       -0.1664
     20 F          62.8779   84.8274    9.9137 F       1  UNL1       -0.1664
     21 F          61.1878   86.2182   11.9654 F       1  UNL1       -0.1664
     22 N          64.8811   89.8780   14.3240 N.am    1  UNL1       -0.2791
     23 C          64.1574   90.6018   13.2275 C.2     1  UNL1        0.2672
     24 O          62.8002   90.1362   12.7899 O.2     1  UNL1       -0.2682
     25 H          65.7719   90.1835   14.6111 H       1  UNL1        0.1552
     26 C          64.7908   91.7911   12.5685 C.ar    1  UNL1        0.1348
     27 C          64.6262   92.0073   11.0933 C.ar    1  UNL1        0.0245
     28 C          65.2597   93.1967   10.4343 C.ar    1  UNL1        0.0135
     29 C          66.0576   94.1698   11.2506 C.ar    1  UNL1        0.0876
     30 C          66.2221   93.9536   12.7257 C.ar    1  UNL1        0.1092
     31 N          65.5888   92.7643   13.3847 N.ar    1  UNL1       -0.2385
     32 C          66.6910   95.3591   10.5916 C.1     1  UNL1        0.1020
     33 N          67.3244   96.5485    9.9326 N.1     1  UNL1       -0.1908
@<TRIPOS>BOND
     1     9     8    1
     2     9     1    1
     3     1     2   ar
     4     2     3   ar
     5     3    22    1
     6    22    23   am
     7    23    24    2
     8    23    26    1
     9    26    27   ar
    10    27    28   ar
    11    28    29   ar
    12    29    32    1
    13    32    33    3
    14    29    30   ar
    15    30    31   ar
    16     3     4   ar
    17     4     5   ar
    18     5     6   ar
    19     6     7    1
    20     9    10    1
    21    10    11    1
    22    11    18    1
    23    18    19    1
    24    18    20    1
    25    18    21    1
    26    11    12    1
    27    12    13    1
    28    13    14    1
    29    13    15    2
    30    15     9    1
    31     6     1   ar
    32    31    26   ar
    33    22    25    1
    34    14    16    1
    35    14    17    1
@<TRIPOS>MOLECULE
*****
 33 35 0 0 0
SMALL
GASTEIGER

@<TRIPOS>ATOM
      1 C          61.1752   87.6169    9.9896 C.ar    1  UNL1        0.0267
      2 C          62.2642   88.2595   10.7965 C.ar    1  UNL1        0.0144
      3 C          61.9158   89.2025   11.9097 C.ar    1  UNL1        0.0505
      4 C          60.4784   89.5029   12.2160 C.ar    1  UNL1        0.0170
      5 C          59.3895   88.8603   11.4091 C.ar    1  UNL1        0.0306
      6 C          59.7379   87.9173   10.2958 C.ar    1  UNL1        0.1379
      7 F          58.6489   87.2747    9.4888 F       1  UNL1       -0.2044
      8 C          60.6732   87.6573    8.1281 C.3     1  UNL1        0.0292
      9 C          61.5236   86.6739    8.8763 C.3     1  UNL1        0.1134
     10 C          62.2529   86.0179   10.0110 C.3     1  UNL1        0.0794
     11 C          63.0353   84.7605    9.7727 C.3     1  UNL1        0.2649
     12 O          63.0883   84.1591    8.3996 O.2     1  UNL1       -0.4449
     13 C          62.3590   84.8150    7.2648 C.2     1  UNL1        0.2769
     14 N          62.4120   84.2135    5.8917 N.pl3   1  UNL1       -0.3133
     15 N          61.5766   86.0724    7.5031 N.2     1  UNL1       -0.2241
     16 H          62.9255   83.3882    5.7353 H       1  UNL1        0.1466
     17 H          61.9333   84.6440    5.1469 H       1  UNL1        0.1466
     18 C          63.7647   84.1046   10.9076 C.3     1  UNL1        0.4342
     19 F          64.4941   83.4486   12.0423 F       1  UNL1       -0.1664
     20 F          64.4429   83.1821    9.9384 F       1  UNL1       -0.1664
     21 F          63.0865   85.0270   11.8767 F       1  UNL1       -0.1664
     22 N          63.0048   89.8452   12.7167 N.am    1  UNL1       -0.2791
     23 C          63.7704   91.0057   12.1535 C.2     1  UNL1        0.2672
     24 O          63.4470   91.5234   10.7833 O.2     1  UNL1       -0.2682
     25 H          63.2170   89.5054   13.6160 H       1  UNL1        0.1552
     26 C          64.8593   91.6483   12.9605 C.ar    1  UNL1        0.1348
     27 C          65.4084   90.9505   14.1694 C.ar    1  UNL1        0.0245
     28 C          66.4974   91.5932   14.9763 C.ar    1  UNL1        0.0135
     29 C          67.0372   92.9337   14.5743 C.ar    1  UNL1        0.0876
     30 C          66.4881   93.6316   13.3654 C.ar    1  UNL1        0.1092
     31 N          65.3992   92.9889   12.5585 N.ar    1  UNL1       -0.2385
     32 C          68.1261   93.5764   15.3813 C.1     1  UNL1        0.1020
     33 N          69.2151   94.2191   16.1882 N.1     1  UNL1       -0.1908
@<TRIPOS>BOND
     1     9     8    1
     2     9     1    1
     3     1     2   ar
     4     2     3   ar
     5     3    22    1
     6    22    23   am
     7    23    24    2
     8    23    26    1
     9    26    27   ar
    10    27    28   ar
    11    28    29   ar
    12    29    32    1
    13    32    33    3
    14    29    30   ar
    15    30    31   ar
    16     3     4   ar
    17     4     5   ar
    18     5     6   ar
    19     6     7    1
    20     9    10    1
    21    10    11    1
    22    11    18    1
    23    18    19    1
    24    18    20    1
    25    18    21    1
    26    11    12    1
    27    12    13    1
    28    13    14    1
    29    13    15    2
    30    15     9    1
    31     6     1   ar
    32    31    26   ar
    33    22    25    1
    34    14    16    1
    35    14    17    1
@<TRIPOS>MOLECULE
*****
 33 35 0 0 0
SMALL
GASTEIGER

@<TRIPOS>ATOM
      1 C          63.8783   87.5210   14.4896 C.ar    1  UNL1        0.0267
      2 C          64.2539   88.5494   13.4642 C.ar    1  UNL1        0.0144
      3 C          64.1555   90.0091   13.7952 C.ar    1  UNL1        0.0505
      4 C          63.6816   90.4404   15.1514 C.ar    1  UNL1        0.0170
      5 C          63.3061   89.4120   16.1767 C.ar    1  UNL1        0.0306
      6 C          63.4044   87.9523   15.8458 C.ar    1  UNL1        0.1379
      7 F          63.0288   86.9239   16.8712 F       1  UNL1       -0.2044
      8 C          64.7524   86.0902   15.4422 C.3     1  UNL1        0.0292
      9 C          63.9767   86.0612   14.1587 C.3     1  UNL1        0.1134
     10 C          63.1668   86.5391   12.9901 C.3     1  UNL1        0.0794
     11 C          62.7246   85.5674   11.9364 C.3     1  UNL1        0.2649
     12 O          63.0924   84.1177   12.0514 O.2     1  UNL1       -0.4449
     13 C          63.9023   83.6398   13.2199 C.2     1  UNL1        0.2769
     14 N          64.2701   82.1901   13.3348 N.pl3   1  UNL1       -0.3133
     15 N          64.3445   84.6115   14.2736 N.2     1  UNL1       -0.2241
     16 H          63.9799   81.5523   12.6433 H       1  UNL1        0.1466
     17 H          64.8017   81.8764   14.1018 H       1  UNL1        0.1466
     18 C          61.9147   86.0454   10.7678 C.3     1  UNL1        0.4342
     19 F          61.1047   86.5235    9.5993 F       1  UNL1       -0.1664
     20 F          60.8922   86.6115   11.7082 F       1  UNL1       -0.1664
     21 F          62.9372   85.4794    9.8276 F       1  UNL1       -0.1664
     22 N          64.5311   91.0376   12.7698 N.am    1  UNL1       -0.2791
     23 C          65.8686   91.7130   12.8400 C.2     1  UNL1        0.2672
     24 O          66.8305   91.3599   13.9355 O.2     1  UNL1       -0.2682
     25 H          63.8998   91.2693   12.0508 H       1  UNL1        0.1552
     26 C          66.2442   92.7414   11.8147 C.ar    1  UNL1        0.1348
     27 C          65.7303   94.1453   11.9374 C.ar    1  UNL1        0.0245
     28 C          66.1060   95.1737   10.9121 C.ar    1  UNL1        0.0135
     29 C          66.9954   94.7983    9.7641 C.ar    1  UNL1        0.0876
     30 C          67.5093   93.3944    9.6414 C.ar    1  UNL1        0.1092
     31 N          67.1337   92.3659   10.6667 N.ar    1  UNL1       -0.2385
     32 C          67.3710   95.8267    8.7388 C.1     1  UNL1        0.1020
     33 N          67.7466   96.8552    7.7135 N.1     1  UNL1       -0.1908
@<TRIPOS>BOND
     1     9     8    1
     2     9     1    1
     3     1     2   ar
     4     2     3   ar
     5     3    22    1
     6    22    23   am
     7    23    24    2
     8    23    26    1
     9    26    27   ar
    10    27    28   ar
    11    28    29   ar
    12    29    32    1
    13    32    33    3
    14    29    30   ar
    15    30    31   ar
    16     3     4   ar
    17     4     5   ar
    18     5     6   ar
    19     6     7    1
    20     9    10    1
    21    10    11    1
    22    11    18    1
    23    18    19    1
    24    18    20    1
    25    18    21    1
    26    11    12    1
    27    12    13    1
    28    13    14    1
    29    13    15    2
    30    15     9    1
    31     6     1   ar
    32    31    26   ar
    33    22    25    1
    34    14    16    1
    35    14    17    1
@<TRIPOS>MOLECULE
*****
 33 35 0 0 0
SMALL
GASTEIGER

@<TRIPOS>ATOM
      1 C          63.1794   84.7307   13.3993 C.ar    1  UNL1        0.0267
      2 C          62.5753   85.5577   12.3034 C.ar    1  UNL1        0.0144
      3 C          62.6774   85.1032   10.8776 C.ar    1  UNL1        0.0505
      4 C          63.3836   83.8217   10.5477 C.ar    1  UNL1        0.0170
      5 C          63.9877   82.9946   11.6435 C.ar    1  UNL1        0.0306
      6 C          63.8857   83.4491   13.0693 C.ar    1  UNL1        0.1379
      7 F          64.4898   82.6221   14.1653 F       1  UNL1       -0.2044
      8 C          62.6238   83.7629   14.9720 C.3     1  UNL1        0.0292
      9 C          63.0774   85.1852   14.8252 C.3     1  UNL1        0.1134
     10 C          63.5663   86.4495   14.1832 C.3     1  UNL1        0.0794
     11 C          63.7958   87.6745   15.0180 C.3     1  UNL1        0.2649
     12 O          63.5362   87.6350   16.4948 O.2     1  UNL1       -0.4449
     13 C          63.0472   86.3706   17.1368 C.2     1  UNL1        0.2769
     14 N          62.7876   86.3311   18.6137 N.pl3   1  UNL1       -0.3133
     15 N          62.8178   85.1457   16.3020 N.2     1  UNL1       -0.2241
     16 H          62.9382   87.1351   19.1616 H       1  UNL1        0.1466
     17 H          62.4667   85.5012   19.0351 H       1  UNL1        0.1466
     18 C          64.2848   88.9389   14.3759 C.3     1  UNL1        0.4342
     19 F          64.7738   90.2033   13.7340 F       1  UNL1       -0.1664
     20 F          64.4450   89.5644   15.7299 F       1  UNL1       -0.1664
     21 F          64.1245   88.3134   13.0220 F       1  UNL1       -0.1664
     22 N          62.0732   85.9303    9.7816 N.am    1  UNL1       -0.2791
     23 C          61.0530   86.9799   10.1096 C.2     1  UNL1        0.2672
     24 O          60.6370   87.2024   11.5335 O.2     1  UNL1       -0.2682
     25 H          62.3463   85.7842    8.8471 H       1  UNL1        0.1552
     26 C          60.4488   87.8069    9.0138 C.ar    1  UNL1        0.1348
     27 C          59.6498   87.1467    7.9295 C.ar    1  UNL1        0.0245
     28 C          59.0456   87.9739    6.8336 C.ar    1  UNL1        0.0135
     29 C          59.2405   89.4611    6.8220 C.ar    1  UNL1        0.0876
     30 C          60.0396   90.1212    7.9063 C.ar    1  UNL1        0.1092
     31 N          60.6437   89.2942    9.0021 N.ar    1  UNL1       -0.2385
     32 C          58.6363   90.2881    5.7261 C.1     1  UNL1        0.1020
     33 N          58.0321   91.1152    4.6302 N.1     1  UNL1       -0.1908
@<TRIPOS>BOND
     1     9     8    1
     2     9     1    1
     3     1     2   ar
     4     2     3   ar
     5     3    22    1
     6    22    23   am
     7    23    24    2
     8    23    26    1
     9    26    27   ar
    10    27    28   ar
    11    28    29   ar
    12    29    32    1
    13    32    33    3
    14    29    30   ar
    15    30    31   ar
    16     3     4   ar
    17     4     5   ar
    18     5     6   ar
    19     6     7    1
    20     9    10    1
    21    10    11    1
    22    11    18    1
    23    18    19    1
    24    18    20    1
    25    18    21    1
    26    11    12    1
    27    12    13    1
    28    13    14    1
    29    13    15    2
    30    15     9    1
    31     6     1   ar
    32    31    26   ar
    33    22    25    1
    34    14    16    1
    35    14    17    1
