@<TRIPOS>MOLECULE
*****
 27 29 0 0 0
SMALL
GASTEIGER

@<TRIPOS>ATOM
      1 C          64.4720   91.5240   15.1702 C.2     1  UNL1        0.0412
      2 C          64.1609   90.0730   15.3888 C.2     1  UNL1       -0.0326
      3 C          64.6215   89.0490   14.3942 C.3     1  UNL1        0.0443
      4 C          64.3103   87.5981   14.6128 C.3     1  UNL1        0.1011
      5 N          63.5386   87.1710   15.8262 N.am    1  UNL1       -0.2454
      6 C          63.2275   85.7201   16.0448 C.2     1  UNL1        0.4049
      7 O          62.4557   85.2931   17.2581 O.2     1  UNL1       -0.2262
      8 C          63.0780   88.1950   16.8208 C.3     1  UNL1        0.1011
      9 C          63.3892   89.6460   16.6021 C.3     1  UNL1        0.0443
     10 C          66.0154   92.3780   12.7436 C.1     1  UNL1       -0.0405
     11 C          65.2438   91.9510   13.9569 C.1     1  UNL1       -0.0583
     12 C          67.2501   96.0176    9.2466 C.3     1  UNL1        0.0521
     13 C          67.4045   94.6249    9.7818 C.ar    1  UNL1        0.0600
     14 C          68.3306   93.6592    9.1037 C.ar    1  UNL1        0.0148
     15 C          68.4849   92.2665    9.6389 C.ar    1  UNL1        0.0034
     16 C          67.7133   91.8394   10.8522 C.ar    1  UNL1        0.0276
     17 C          66.7872   92.8051   11.5302 C.ar    1  UNL1        0.1224
     18 N          66.6328   94.1978   10.9950 N.ar    1  UNL1       -0.2414
     19 O          63.6880   84.6961   15.0502 O.3     1  UNL1       -0.4342
     20 C          62.7130   84.1064   14.0747 C.3     1  UNL1        0.2148
     21 C          63.1989   83.5660   12.7625 C.3     1  UNL1        0.0738
     22 C          62.9385   84.3262   11.4958 C.ar    1  UNL1       -0.0184
     23 C          63.5708   83.8810   10.2105 C.ar    1  UNL1       -0.0041
     24 C          63.3105   84.6411    8.9438 C.ar    1  UNL1       -0.0003
     25 C          62.4178   85.8465    8.9624 C.ar    1  UNL1       -0.0000
     26 C          61.7856   86.2917   10.2477 C.ar    1  UNL1       -0.0003
     27 C          62.0459   85.5315   11.5144 C.ar    1  UNL1       -0.0041
@<TRIPOS>BOND
     1    12    13    1
     2    13    14   ar
     3    14    15   ar
     4    15    16   ar
     5    16    17   ar
     6    17    10    1
     7    10    11    3
     8    11     1    1
     9     1     2    2
    10     2     3    1
    11     3     4    1
    12     4     5    1
    13     5     6   am
    14     6     7    2
    15     6    19    1
    16    19    20    1
    17    20    21    1
    18    21    22    1
    19    22    23   ar
    20    23    24   ar
    21    24    25   ar
    22    25    26   ar
    23    26    27   ar
    24     5     8    1
    25     8     9    1
    26    17    18   ar
    27    18    13   ar
    28     9     2    1
    29    27    22   ar
@<TRIPOS>MOLECULE
*****
 27 29 0 0 0
SMALL
GASTEIGER

@<TRIPOS>ATOM
      1 C          63.2524   87.7704   16.3380 C.2     1  UNL1        0.0412
      2 C          63.3807   86.4068   15.7263 C.2     1  UNL1       -0.0326
      3 C          64.1436   86.2273   14.4474 C.3     1  UNL1        0.0443
      4 C          64.2719   84.8638   13.8357 C.3     1  UNL1        0.1011
      5 N          63.6373   83.6796   14.5030 N.am    1  UNL1       -0.2454
      6 C          63.7656   82.3161   13.8913 C.2     1  UNL1        0.4049
      7 O          63.1311   81.1320   14.5586 O.2     1  UNL1       -0.2262
      8 C          62.8744   83.8592   15.7819 C.3     1  UNL1        0.1011
      9 C          62.7461   85.2228   16.3936 C.3     1  UNL1        0.0443
     10 C          64.5216   90.1386   15.0035 C.1     1  UNL1       -0.0405
     11 C          63.8870   88.9545   15.6707 C.1     1  UNL1       -0.0583
     12 C          65.3399   93.0004   10.7443 C.3     1  UNL1        0.0521
     13 C          65.5653   92.7536   12.2066 C.ar    1  UNL1        0.0600
     14 C          66.4253   93.6908   13.0016 C.ar    1  UNL1        0.0148
     15 C          66.6507   93.4440   14.4639 C.ar    1  UNL1        0.0034
     16 C          66.0161   92.2599   15.1312 C.ar    1  UNL1        0.0276
     17 C          65.1562   91.3227   14.3362 C.ar    1  UNL1        0.1224
     18 N          64.9308   91.5695   12.8739 N.ar    1  UNL1       -0.2414
     19 O          64.5285   82.1366   12.6123 O.3     1  UNL1       -0.4342
     20 C          63.8147   82.2171   11.2956 C.3     1  UNL1        0.2148
     21 C          64.1630   83.3008   10.3187 C.3     1  UNL1        0.0738
     22 C          63.1884   84.4088   10.0488 C.ar    1  UNL1       -0.0184
     23 C          63.0397   84.9549    8.6596 C.ar    1  UNL1       -0.0041
     24 C          62.0652   86.0627    8.3896 C.ar    1  UNL1       -0.0003
     25 C          61.2394   86.6246    9.5088 C.ar    1  UNL1       -0.0000
     26 C          61.3881   86.0785   10.8979 C.ar    1  UNL1       -0.0003
     27 C          62.3627   84.9705   11.1679 C.ar    1  UNL1       -0.0041
@<TRIPOS>BOND
     1    12    13    1
     2    13    14   ar
     3    14    15   ar
     4    15    16   ar
     5    16    17   ar
     6    17    10    1
     7    10    11    3
     8    11     1    1
     9     1     2    2
    10     2     3    1
    11     3     4    1
    12     4     5    1
    13     5     6   am
    14     6     7    2
    15     6    19    1
    16    19    20    1
    17    20    21    1
    18    21    22    1
    19    22    23   ar
    20    23    24   ar
    21    24    25   ar
    22    25    26   ar
    23    26    27   ar
    24     5     8    1
    25     8     9    1
    26    17    18   ar
    27    18    13   ar
    28     9     2    1
    29    27    22   ar
@<TRIPOS>MOLECULE
*****
 27 29 0 0 0
SMALL
GASTEIGER

@<TRIPOS>ATOM
      1 C          62.4802   86.2231   16.7710 C.2     1  UNL1        0.0412
      2 C          63.0820   87.5324   16.3545 C.2     1  UNL1       -0.0326
      3 C          63.7282   87.6661   15.0075 C.3     1  UNL1        0.0443
      4 C          64.3300   88.9754   14.5910 C.3     1  UNL1        0.1011
      5 N          64.2856   90.1511   15.5215 N.am    1  UNL1       -0.2454
      6 C          64.8874   91.4604   15.1050 C.2     1  UNL1        0.4049
      7 O          64.8429   92.6360   16.0355 O.2     1  UNL1       -0.2262
      8 C          63.6393   90.0174   16.8685 C.3     1  UNL1        0.1011
      9 C          63.0375   88.7080   17.2850 C.3     1  UNL1        0.0443
     10 C          62.5691   83.8717   14.9101 C.1     1  UNL1       -0.0405
     11 C          62.5246   85.0474   15.8405 C.1     1  UNL1       -0.0583
     12 C          63.9443   81.7897   10.3522 C.3     1  UNL1        0.0521
     13 C          63.3011   81.6551   11.7006 C.ar    1  UNL1        0.0600
     14 C          62.7024   80.3448   12.1185 C.ar    1  UNL1        0.0148
     15 C          62.0593   80.2101   13.4669 C.ar    1  UNL1        0.0034
     16 C          62.0148   81.3857   14.3974 C.ar    1  UNL1        0.0276
     17 C          62.6135   82.6960   13.9795 C.ar    1  UNL1        0.1224
     18 N          63.2567   82.8307   12.6311 N.ar    1  UNL1       -0.2414
     19 O          65.5337   91.5941   13.7579 O.3     1  UNL1       -0.4342
     20 C          66.3666   92.8009   13.4422 C.3     1  UNL1        0.2148
     21 C          66.0003   93.6834   12.2859 C.3     1  UNL1        0.0738
     22 C          66.7645   93.5888   10.9986 C.ar    1  UNL1       -0.0184
     23 C          66.7956   94.7564   10.0574 C.ar    1  UNL1       -0.0041
     24 C          67.5598   94.6618    8.7702 C.ar    1  UNL1       -0.0003
     25 C          68.2929   93.3997    8.4241 C.ar    1  UNL1       -0.0000
     26 C          68.2618   92.2322    9.3653 C.ar    1  UNL1       -0.0003
     27 C          67.4976   92.3267   10.6526 C.ar    1  UNL1       -0.0041
@<TRIPOS>BOND
     1    12    13    1
     2    13    14   ar
     3    14    15   ar
     4    15    16   ar
     5    16    17   ar
     6    17    10    1
     7    10    11    3
     8    11     1    1
     9     1     2    2
    10     2     3    1
    11     3     4    1
    12     4     5    1
    13     5     6   am
    14     6     7    2
    15     6    19    1
    16    19    20    1
    17    20    21    1
    18    21    22    1
    19    22    23   ar
    20    23    24   ar
    21    24    25   ar
    22    25    26   ar
    23    26    27   ar
    24     5     8    1
    25     8     9    1
    26    17    18   ar
    27    18    13   ar
    28     9     2    1
    29    27    22   ar
@<TRIPOS>MOLECULE
*****
 27 29 0 0 0
SMALL
GASTEIGER

@<TRIPOS>ATOM
      1 C          63.1507   87.0175   12.5441 C.2     1  UNL1        0.0412
      2 C          62.2753   87.2760   11.3539 C.2     1  UNL1       -0.0326
      3 C          62.0088   88.6840   10.9105 C.3     1  UNL1        0.0443
      4 C          61.1333   88.9425    9.7203 C.3     1  UNL1        0.1011
      5 N          60.5243   87.7930    8.9733 N.am    1  UNL1       -0.2454
      6 C          59.6489   88.0515    7.7831 C.2     1  UNL1        0.4049
      7 O          59.0399   86.9020    7.0362 O.2     1  UNL1       -0.2262
      8 C          60.7908   86.3850    9.4167 C.3     1  UNL1        0.1011
      9 C          61.6663   86.1265   10.6070 C.3     1  UNL1        0.0443
     10 C          64.3687   89.3164   14.0380 C.1     1  UNL1       -0.0405
     11 C          63.7597   88.1670   13.2910 C.1     1  UNL1       -0.0583
     12 C          68.3576   92.5446   14.8547 C.3     1  UNL1        0.0521
     13 C          66.9721   92.0800   15.1932 C.ar    1  UNL1        0.0600
     14 C          66.1957   92.7648   16.2786 C.ar    1  UNL1        0.0148
     15 C          64.8102   92.3002   16.6171 C.ar    1  UNL1        0.0034
     16 C          64.2012   91.1507   15.8703 C.ar    1  UNL1        0.0276
     17 C          64.9777   90.4659   14.7849 C.ar    1  UNL1        0.1224
     18 N          66.3631   90.9306   14.4464 N.ar    1  UNL1       -0.2414
     19 O          59.3823   89.4594    7.3397 O.3     1  UNL1       -0.4342
     20 C          59.1003   89.7503    5.8955 C.3     1  UNL1        0.2148
     21 C          59.0053   91.1701    5.4210 C.3     1  UNL1        0.0738
     22 C          59.9697   91.6835    4.3931 C.ar    1  UNL1       -0.0184
     23 C          61.3853   91.1876    4.3791 C.ar    1  UNL1       -0.0041
     24 C          62.3496   91.7009    3.3512 C.ar    1  UNL1       -0.0003
     25 C          61.8984   92.7102    2.3374 C.ar    1  UNL1       -0.0000
     26 C          60.4828   93.2061    2.3514 C.ar    1  UNL1       -0.0003
     27 C          59.5184   92.6927    3.3793 C.ar    1  UNL1       -0.0041
@<TRIPOS>BOND
     1    12    13    1
     2    13    14   ar
     3    14    15   ar
     4    15    16   ar
     5    16    17   ar
     6    17    10    1
     7    10    11    3
     8    11     1    1
     9     1     2    2
    10     2     3    1
    11     3     4    1
    12     4     5    1
    13     5     6   am
    14     6     7    2
    15     6    19    1
    16    19    20    1
    17    20    21    1
    18    21    22    1
    19    22    23   ar
    20    23    24   ar
    21    24    25   ar
    22    25    26   ar
    23    26    27   ar
    24     5     8    1
    25     8     9    1
    26    17    18   ar
    27    18    13   ar
    28     9     2    1
    29    27    22   ar
@<TRIPOS>MOLECULE
*****
 27 29 0 0 0
SMALL
GASTEIGER

@<TRIPOS>ATOM
      1 C          62.5442   86.4059   16.7534 C.2     1  UNL1        0.0412
      2 C          63.1716   87.6941   16.3097 C.2     1  UNL1       -0.0326
      3 C          63.8285   87.7840   14.9642 C.3     1  UNL1        0.0443
      4 C          64.4559   89.0722   14.5206 C.3     1  UNL1        0.1011
      5 N          64.4265   90.2705   15.4224 N.am    1  UNL1       -0.2454
      6 C          65.0539   91.5587   14.9788 C.2     1  UNL1        0.4049
      7 O          65.0244   92.7569   15.8806 O.2     1  UNL1       -0.2262
      8 C          63.7695   90.1805   16.7679 C.3     1  UNL1        0.1011
      9 C          63.1421   88.8923   17.2116 C.3     1  UNL1        0.0443
     10 C          62.6031   84.0093   14.9497 C.1     1  UNL1       -0.0405
     11 C          62.5737   85.2076   15.8515 C.1     1  UNL1       -0.0583
     12 C          63.8263   81.8378   10.3903 C.3     1  UNL1        0.0521
     13 C          63.2442   81.7253   11.7681 C.ar    1  UNL1        0.0600
     14 C          62.6916   80.4146   12.2441 C.ar    1  UNL1        0.0148
     15 C          62.1095   80.3021   13.6220 C.ar    1  UNL1        0.0034
     16 C          62.0800   81.5003   14.5238 C.ar    1  UNL1        0.0276
     17 C          62.6326   82.8110   14.0478 C.ar    1  UNL1        0.1224
     18 N          63.2147   82.9235   12.6700 N.ar    1  UNL1       -0.2414
     19 O          65.7108   91.6487   13.6333 O.3     1  UNL1       -0.4342
     20 C          65.0312   92.3808   12.5143 C.3     1  UNL1        0.2148
     21 C          64.6518   91.6495   11.2609 C.3     1  UNL1        0.0738
     22 C          63.3200   90.9659   11.1653 C.ar    1  UNL1       -0.0184
     23 C          62.6679   90.7775    9.8277 C.ar    1  UNL1       -0.0041
     24 C          61.3361   90.0940    9.7321 C.ar    1  UNL1       -0.0003
     25 C          60.6564   89.5988   10.9743 C.ar    1  UNL1       -0.0000
     26 C          61.3085   89.7872   12.3119 C.ar    1  UNL1       -0.0003
     27 C          62.6403   90.4708   12.4074 C.ar    1  UNL1       -0.0041
@<TRIPOS>BOND
     1    12    13    1
     2    13    14   ar
     3    14    15   ar
     4    15    16   ar
     5    16    17   ar
     6    17    10    1
     7    10    11    3
     8    11     1    1
     9     1     2    2
    10     2     3    1
    11     3     4    1
    12     4     5    1
    13     5     6   am
    14     6     7    2
    15     6    19    1
    16    19    20    1
    17    20    21    1
    18    21    22    1
    19    22    23   ar
    20    23    24   ar
    21    24    25   ar
    22    25    26   ar
    23    26    27   ar
    24     5     8    1
    25     8     9    1
    26    17    18   ar
    27    18    13   ar
    28     9     2    1
    29    27    22   ar
@<TRIPOS>MOLECULE
*****
 27 29 0 0 0
SMALL
GASTEIGER

@<TRIPOS>ATOM
      1 C          63.0524   91.6610   10.9161 C.2     1  UNL1        0.0412
      2 C          62.5540   90.2799   10.6093 C.2     1  UNL1       -0.0326
      3 C          63.1257   89.0979   11.3344 C.3     1  UNL1        0.0443
      4 C          62.6273   87.7168   11.0276 C.3     1  UNL1        0.1011
      5 N          61.5571   87.5177    9.9955 N.am    1  UNL1       -0.2454
      6 C          61.0587   86.1367    9.6886 C.2     1  UNL1        0.4049
      7 O          59.9885   85.9377    8.6566 O.2     1  UNL1       -0.2262
      8 C          60.9853   88.6998    9.2703 C.3     1  UNL1        0.1011
      9 C          61.4838   90.0809    9.5772 C.3     1  UNL1        0.0443
     10 C          65.1927   92.0591   12.9803 C.1     1  UNL1       -0.0405
     11 C          64.1226   91.8600   11.9482 C.1     1  UNL1       -0.0583
     12 C          70.2233   92.3611   14.2459 C.3     1  UNL1        0.0521
     13 C          68.7782   92.4091   14.6451 C.ar    1  UNL1        0.0600
     14 C          68.4033   92.6562   16.0763 C.ar    1  UNL1        0.0148
     15 C          66.9582   92.7042   16.4755 C.ar    1  UNL1        0.0034
     16 C          65.8880   92.5052   15.4435 C.ar    1  UNL1        0.0276
     17 C          66.2629   92.2581   14.0123 C.ar    1  UNL1        0.1224
     18 N          67.7080   92.2101   13.6131 N.ar    1  UNL1       -0.2414
     19 O          61.6304   84.9546   10.4138 O.3     1  UNL1       -0.4342
     20 C          62.9515   84.3830    9.9919 C.3     1  UNL1        0.2148
     21 C          63.8212   83.6846   10.9948 C.3     1  UNL1        0.0738
     22 C          63.2003   82.8301   12.0599 C.ar    1  UNL1       -0.0184
     23 C          62.8000   83.4387   13.3711 C.ar    1  UNL1       -0.0041
     24 C          62.1791   82.5842   14.4361 C.ar    1  UNL1       -0.0003
     25 C          61.9585   81.1210   14.1899 C.ar    1  UNL1       -0.0000
     26 C          62.3588   80.5124   12.8787 C.ar    1  UNL1       -0.0003
     27 C          62.9797   81.3670   11.8137 C.ar    1  UNL1       -0.0041
@<TRIPOS>BOND
     1    12    13    1
     2    13    14   ar
     3    14    15   ar
     4    15    16   ar
     5    16    17   ar
     6    17    10    1
     7    10    11    3
     8    11     1    1
     9     1     2    2
    10     2     3    1
    11     3     4    1
    12     4     5    1
    13     5     6   am
    14     6     7    2
    15     6    19    1
    16    19    20    1
    17    20    21    1
    18    21    22    1
    19    22    23   ar
    20    23    24   ar
    21    24    25   ar
    22    25    26   ar
    23    26    27   ar
    24     5     8    1
    25     8     9    1
    26    17    18   ar
    27    18    13   ar
    28     9     2    1
    29    27    22   ar
@<TRIPOS>MOLECULE
*****
 27 29 0 0 0
SMALL
GASTEIGER

@<TRIPOS>ATOM
      1 C          61.3958   90.5950   11.2392 C.2     1  UNL1        0.0412
      2 C          61.3555   89.3567   10.3937 C.2     1  UNL1       -0.0326
      3 C          62.5432   88.4418   10.3465 C.3     1  UNL1        0.0443
      4 C          62.5029   87.2035    9.5010 C.3     1  UNL1        0.1011
      5 N          61.2748   86.8800    8.7027 N.am    1  UNL1       -0.2454
      6 C          61.2345   85.6417    7.8573 C.2     1  UNL1        0.4049
      7 O          60.0065   85.3183    7.0590 O.2     1  UNL1       -0.2262
      8 C          60.0871   87.7949    8.7500 C.3     1  UNL1        0.1011
      9 C          60.1275   89.0333    9.5955 C.3     1  UNL1        0.0443
     10 C          63.8519   91.2420   12.8358 C.1     1  UNL1       -0.0405
     11 C          62.6239   90.9185   12.0375 C.1     1  UNL1       -0.0583
     12 C          69.0097   91.7992   13.1311 C.3     1  UNL1        0.0521
     13 C          67.6589   91.8441   13.7817 C.ar    1  UNL1        0.0600
     14 C          67.5361   92.2124   15.2305 C.ar    1  UNL1        0.0148
     15 C          66.1853   92.2573   15.8812 C.ar    1  UNL1        0.0034
     16 C          64.9573   91.9339   15.0829 C.ar    1  UNL1        0.0276
     17 C          65.0800   91.5655   13.6341 C.ar    1  UNL1        0.1224
     18 N          66.4308   91.5206   12.9835 N.ar    1  UNL1       -0.2414
     19 O          62.4223   84.7268    7.8100 O.3     1  UNL1       -0.4342
     20 C          63.4033   84.7122    8.9446 C.3     1  UNL1        0.2148
     21 C          63.7358   83.4211    9.6320 C.3     1  UNL1        0.0738
     22 C          63.3188   83.2005   11.0560 C.ar    1  UNL1       -0.0184
     23 C          63.1993   84.3668   11.9917 C.ar    1  UNL1       -0.0041
     24 C          62.7823   84.1463   13.4156 C.ar    1  UNL1       -0.0003
     25 C          62.4849   82.7595   13.9038 C.ar    1  UNL1       -0.0000
     26 C          62.6044   81.5932   12.9681 C.ar    1  UNL1       -0.0003
     27 C          63.0214   81.8138   11.5442 C.ar    1  UNL1       -0.0041
@<TRIPOS>BOND
     1    12    13    1
     2    13    14   ar
     3    14    15   ar
     4    15    16   ar
     5    16    17   ar
     6    17    10    1
     7    10    11    3
     8    11     1    1
     9     1     2    2
    10     2     3    1
    11     3     4    1
    12     4     5    1
    13     5     6   am
    14     6     7    2
    15     6    19    1
    16    19    20    1
    17    20    21    1
    18    21    22    1
    19    22    23   ar
    20    23    24   ar
    21    24    25   ar
    22    25    26   ar
    23    26    27   ar
    24     5     8    1
    25     8     9    1
    26    17    18   ar
    27    18    13   ar
    28     9     2    1
    29    27    22   ar
@<TRIPOS>MOLECULE
*****
 27 29 0 0 0
SMALL
GASTEIGER

@<TRIPOS>ATOM
      1 C          64.3192   86.6267   15.5872 C.2     1  UNL1        0.0412
      2 C          64.2230   87.8193   14.6825 C.2     1  UNL1       -0.0326
      3 C          63.6451   87.6720   13.3062 C.3     1  UNL1        0.0443
      4 C          63.5490   88.8645   12.4015 C.3     1  UNL1        0.1011
      5 N          64.0308   90.2045   12.8732 N.am    1  UNL1       -0.2454
      6 C          63.9347   91.3971   11.9685 C.2     1  UNL1        0.4049
      7 O          64.4165   92.7370   12.4402 O.2     1  UNL1       -0.2262
      8 C          64.6087   90.3518   14.2495 C.3     1  UNL1        0.1011
      9 C          64.7048   89.1591   15.1542 C.3     1  UNL1        0.0443
     10 C          63.3556   83.9468   14.6438 C.1     1  UNL1       -0.0405
     11 C          63.8374   85.2867   15.1155 C.1     1  UNL1       -0.0583
     12 C          59.5875   80.3856   14.2988 C.3     1  UNL1        0.0521
     13 C          60.9897   80.8262   13.9997 C.ar    1  UNL1        0.0600
     14 C          61.9102   79.9270   13.2289 C.ar    1  UNL1        0.0148
     15 C          63.3125   80.3676   12.9298 C.ar    1  UNL1        0.0034
     16 C          63.7943   81.7075   13.4014 C.ar    1  UNL1        0.0276
     17 C          62.8738   82.6068   14.1722 C.ar    1  UNL1        0.1224
     18 N          61.4716   82.1661   14.4713 N.ar    1  UNL1       -0.2414
     19 O          63.3568   91.2498   10.5922 O.3     1  UNL1       -0.4342
     20 C          62.7939   89.9309   10.1523 C.3     1  UNL1        0.2148
     21 C          61.3346   89.8091    9.8272 C.3     1  UNL1        0.0738
     22 C          60.8219   88.5861    9.1262 C.ar    1  UNL1       -0.0184
     23 C          59.6508   88.6910    8.1948 C.ar    1  UNL1       -0.0041
     24 C          59.1381   87.4681    7.4938 C.ar    1  UNL1       -0.0003
     25 C          59.7965   86.1401    7.7242 C.ar    1  UNL1       -0.0000
     26 C          60.9676   86.0351    8.6556 C.ar    1  UNL1       -0.0003
     27 C          61.4803   87.2582    9.3566 C.ar    1  UNL1       -0.0041
@<TRIPOS>BOND
     1    12    13    1
     2    13    14   ar
     3    14    15   ar
     4    15    16   ar
     5    16    17   ar
     6    17    10    1
     7    10    11    3
     8    11     1    1
     9     1     2    2
    10     2     3    1
    11     3     4    1
    12     4     5    1
    13     5     6   am
    14     6     7    2
    15     6    19    1
    16    19    20    1
    17    20    21    1
    18    21    22    1
    19    22    23   ar
    20    23    24   ar
    21    24    25   ar
    22    25    26   ar
    23    26    27   ar
    24     5     8    1
    25     8     9    1
    26    17    18   ar
    27    18    13   ar
    28     9     2    1
    29    27    22   ar
