@<TRIPOS>MOLECULE
*****
 23 25 0 0 0
SMALL
GASTEIGER

@<TRIPOS>ATOM
      1 C          61.9778   89.5382   12.0908 C.3     1  UNL1        0.0512
      2 C          63.1020   90.5310   12.1162 C.2     1  UNL1        0.0551
      3 C          63.6285   91.1008   10.8324 C.2     1  UNL1        0.0470
      4 S          64.7526   92.0935   10.8577 S.3     1  UNL1       -0.0751
      5 C          65.3503   92.5166   12.1669 C.3     1  UNL1        0.2085
      6 C          64.8238   91.9468   13.4507 C.ar    1  UNL1        0.2066
      7 N          65.2102   92.1731   14.8823 N.ar    1  UNL1       -0.0545
      8 O          64.3249   91.3201   15.7417 O.2     1  UNL1       -0.2950
      9 C          63.3913   90.5666   14.8413 C.ar    1  UNL1        0.4470
     10 O          62.3349   89.5963   15.2798 O.2     1  UNL1       -0.2203
     11 N          63.6996   90.9540   13.4253 N.ar    1  UNL1       -0.2279
     12 C          66.1849   93.3316   11.2240 C.ar    1  UNL1        0.0189
     13 C          66.1049   94.8291   11.2544 C.ar    1  UNL1       -0.0007
     14 C          66.9395   95.6442   10.3116 C.ar    1  UNL1       -0.0002
     15 C          67.8543   94.9617    9.3381 C.ar    1  UNL1       -0.0000
     16 C          67.9343   93.4641    9.3077 C.ar    1  UNL1       -0.0002
     17 C          67.0996   92.6490   10.2506 C.ar    1  UNL1       -0.0007
     18 O          66.2378   93.2227   13.1486 O.3     1  UNL1       -0.3293
     19 C          67.4909   92.5596   13.6386 C.3     1  UNL1        0.2470
     20 C          68.2531   93.1520   14.7867 C.3     1  UNL1        0.4249
     21 F          69.0154   93.7443   15.9348 F       1  UNL1       -0.1674
     22 F          69.2440   92.0285   14.7085 F       1  UNL1       -0.1674
     23 F          67.2623   94.2755   14.8649 F       1  UNL1       -0.1674
@<TRIPOS>BOND
     1     1     2    1
     2     2     3    2
     3     3     4    1
     4     4     5    1
     5     5    18    1
     6    18    19    1
     7    19    20    1
     8    20    21    1
     9    20    22    1
    10    20    23    1
    11     5    12    1
    12    12    13   ar
    13    13    14   ar
    14    14    15   ar
    15    15    16   ar
    16    16    17   ar
    17     5     6    1
    18     6     7   ar
    19     7     8   ar
    20     8     9   ar
    21     9    10    2
    22     9    11   ar
    23    11     2    1
    24    17    12   ar
    25    11     6   ar
@<TRIPOS>MOLECULE
*****
 23 25 0 0 0
SMALL
GASTEIGER

@<TRIPOS>ATOM
      1 C          66.8892   94.2603   14.0462 C.3     1  UNL1        0.0512
      2 C          66.0955   92.9887   13.9876 C.2     1  UNL1        0.0551
      3 C          65.9705   92.1257   15.2081 C.2     1  UNL1        0.0470
      4 S          65.1770   90.8543   15.1495 S.3     1  UNL1       -0.0751
      5 C          64.5082   90.4457   13.8704 C.3     1  UNL1        0.2085
      6 C          64.6332   91.3088   12.6499 C.ar    1  UNL1        0.2066
      7 N          64.0894   91.1654   11.2593 N.ar    1  UNL1       -0.0545
      8 O          64.5470   92.3483   10.4585 O.2     1  UNL1       -0.2950
      9 C          65.3736   93.2228   11.3542 C.ar    1  UNL1        0.4470
     10 O          66.0313   94.5131   10.9639 O.2     1  UNL1       -0.2203
     11 N          65.4269   92.5803   12.7085 N.ar    1  UNL1       -0.2279
     12 C          64.1021   89.3031   14.7532 C.ar    1  UNL1        0.0189
     13 C          64.4317   87.8946   14.3561 C.ar    1  UNL1       -0.0007
     14 C          64.0256   86.7519   15.2387 C.ar    1  UNL1       -0.0002
     15 C          63.2899   87.0176   16.5187 C.ar    1  UNL1       -0.0000
     16 C          62.9603   88.4260   16.9158 C.ar    1  UNL1       -0.0002
     17 C          63.3664   89.5688   16.0330 C.ar    1  UNL1       -0.0007
     18 O          63.6986   89.6404   12.8979 O.3     1  UNL1       -0.3293
     19 C          62.2291   89.9017   12.7482 C.3     1  UNL1        0.2470
     20 C          61.4346   89.1507   11.7211 C.3     1  UNL1        0.4249
     21 F          60.6401   88.3998   10.6940 F       1  UNL1       -0.1674
     22 F          62.6156   88.2649   11.4553 F       1  UNL1       -0.1674
     23 F          60.2536   90.0365   11.9870 F       1  UNL1       -0.1674
@<TRIPOS>BOND
     1     1     2    1
     2     2     3    2
     3     3     4    1
     4     4     5    1
     5     5    18    1
     6    18    19    1
     7    19    20    1
     8    20    21    1
     9    20    22    1
    10    20    23    1
    11     5    12    1
    12    12    13   ar
    13    13    14   ar
    14    14    15   ar
    15    15    16   ar
    16    16    17   ar
    17     5     6    1
    18     6     7   ar
    19     7     8   ar
    20     8     9   ar
    21     9    10    2
    22     9    11   ar
    23    11     2    1
    24    17    12   ar
    25    11     6   ar
@<TRIPOS>MOLECULE
*****
 23 25 0 0 0
SMALL
GASTEIGER

@<TRIPOS>ATOM
      1 C          66.2881   93.8180   10.8077 C.3     1  UNL1        0.0512
      2 C          65.3558   92.7840   11.3660 C.2     1  UNL1        0.0551
      3 C          64.4294   92.0379   10.4523 C.2     1  UNL1        0.0470
      4 S          63.4972   91.0040   11.0105 S.3     1  UNL1       -0.0751
      5 C          63.4913   90.7161   12.4827 C.3     1  UNL1        0.2085
      6 C          64.4177   91.4622   13.3965 C.ar    1  UNL1        0.2066
      7 N          64.6350   91.3943   14.8791 N.ar    1  UNL1       -0.0545
      8 O          65.7016   92.3863   15.2371 O.2     1  UNL1       -0.2950
      9 C          66.1435   93.0673   13.9757 C.ar    1  UNL1        0.4470
     10 O          67.1944   94.1325   13.8705 O.2     1  UNL1       -0.2203
     11 N          65.3500   92.4962   12.8381 N.ar    1  UNL1       -0.2279
     12 C          62.4355   89.7539   12.0248 C.ar    1  UNL1        0.0189
     13 C          60.9863   90.1288   12.1217 C.ar    1  UNL1       -0.0007
     14 C          59.9305   89.1668   11.6639 C.ar    1  UNL1       -0.0002
     15 C          60.3238   87.8297   11.1092 C.ar    1  UNL1       -0.0000
     16 C          61.7729   87.4549   11.0123 C.ar    1  UNL1       -0.0002
     17 C          62.8288   88.4170   11.4701 C.ar    1  UNL1       -0.0007
     18 O          63.1187   90.0941   13.7957 O.3     1  UNL1       -0.3293
     19 C          63.9104   88.9369   14.3290 C.3     1  UNL1        0.2470
     20 C          63.5482   88.3257   15.6501 C.3     1  UNL1        0.4249
     21 F          63.1860   87.7145   16.9712 F       1  UNL1       -0.1674
     22 F          62.7040   89.5230   15.9726 F       1  UNL1       -0.1674
     23 F          64.3923   87.1284   15.3276 F       1  UNL1       -0.1674
@<TRIPOS>BOND
     1     1     2    1
     2     2     3    2
     3     3     4    1
     4     4     5    1
     5     5    18    1
     6    18    19    1
     7    19    20    1
     8    20    21    1
     9    20    22    1
    10    20    23    1
    11     5    12    1
    12    12    13   ar
    13    13    14   ar
    14    14    15   ar
    15    15    16   ar
    16    16    17   ar
    17     5     6    1
    18     6     7   ar
    19     7     8   ar
    20     8     9   ar
    21     9    10    2
    22     9    11   ar
    23    11     2    1
    24    17    12   ar
    25    11     6   ar
@<TRIPOS>MOLECULE
*****
 23 25 0 0 0
SMALL
GASTEIGER

@<TRIPOS>ATOM
      1 C          64.1384   91.7675   12.2474 C.3     1  UNL1        0.0512
      2 C          63.5279   90.4587   11.8421 C.2     1  UNL1        0.0551
      3 C          62.8025   90.3424   10.5344 C.2     1  UNL1        0.0470
      4 S          62.1921   89.0336   10.1291 S.3     1  UNL1       -0.0751
      5 C          62.3070   87.8409   11.0316 C.3     1  UNL1        0.2085
      6 C          63.0325   87.9572   12.3393 C.ar    1  UNL1        0.2066
      7 N          63.3053   86.9617   13.4276 N.ar    1  UNL1       -0.0545
      8 O          64.0843   87.6553   14.5056 O.2     1  UNL1       -0.2950
      9 C          64.2930   89.0795   14.0834 C.ar    1  UNL1        0.4470
     10 O          65.0235   90.1322   14.8632 O.2     1  UNL1       -0.2203
     11 N          63.6429   89.2660   12.7446 N.ar    1  UNL1       -0.2279
     12 C          61.5275   87.2378    9.9008 C.ar    1  UNL1        0.0189
     13 C          62.2268   86.4035    8.8688 C.ar    1  UNL1       -0.0007
     14 C          61.4474   85.8004    7.7381 C.ar    1  UNL1       -0.0002
     15 C          59.9686   86.0315    7.6392 C.ar    1  UNL1       -0.0000
     16 C          59.2693   86.8658    8.6712 C.ar    1  UNL1       -0.0002
     17 C          60.0488   87.4690    9.8020 C.ar    1  UNL1       -0.0007
     18 O          62.1513   86.4389   11.5413 O.3     1  UNL1       -0.3293
     19 C          63.0797   85.3607   11.0664 C.3     1  UNL1        0.2470
     20 C          62.7916   83.9253   11.3931 C.3     1  UNL1        0.4249
     21 F          62.5034   82.4899   11.7198 F       1  UNL1       -0.1674
     22 F          63.4903   83.4989   10.1361 F       1  UNL1       -0.1674
     23 F          62.0928   84.3516   12.6501 F       1  UNL1       -0.1674
@<TRIPOS>BOND
     1     1     2    1
     2     2     3    2
     3     3     4    1
     4     4     5    1
     5     5    18    1
     6    18    19    1
     7    19    20    1
     8    20    21    1
     9    20    22    1
    10    20    23    1
    11     5    12    1
    12    12    13   ar
    13    13    14   ar
    14    14    15   ar
    15    15    16   ar
    16    16    17   ar
    17     5     6    1
    18     6     7   ar
    19     7     8   ar
    20     8     9   ar
    21     9    10    2
    22     9    11   ar
    23    11     2    1
    24    17    12   ar
    25    11     6   ar
@<TRIPOS>MOLECULE
*****
 23 25 0 0 0
SMALL
GASTEIGER

@<TRIPOS>ATOM
      1 C          63.4393   82.8950   14.8468 C.3     1  UNL1        0.0512
      2 C          63.1908   83.8182   13.6910 C.2     1  UNL1        0.0551
      3 C          62.6787   83.2719   12.3913 C.2     1  UNL1        0.0470
      4 S          62.4302   84.1951   11.2356 S.3     1  UNL1       -0.0751
      5 C          62.6938   85.6648   11.3794 C.3     1  UNL1        0.2085
      6 C          63.2060   86.2111   12.6791 C.ar    1  UNL1        0.2066
      7 N          63.5551   87.6034   13.1145 N.ar    1  UNL1       -0.0545
      8 O          64.0195   87.5406   14.5395 O.2     1  UNL1       -0.2950
      9 C          63.9572   86.1096   14.9847 C.ar    1  UNL1        0.4470
     10 O          64.3320   85.5912   16.3415 O.2     1  UNL1       -0.2203
     11 N          63.4545   85.2879   13.8349 N.ar    1  UNL1       -0.2279
     12 C          62.2156   85.6237    9.9583 C.ar    1  UNL1        0.0189
     13 C          63.1059   85.0753    8.8829 C.ar    1  UNL1       -0.0007
     14 C          62.6278   85.0342    7.4618 C.ar    1  UNL1       -0.0002
     15 C          61.2591   85.5416    7.1160 C.ar    1  UNL1       -0.0000
     16 C          60.3688   86.0900    8.1914 C.ar    1  UNL1       -0.0002
     17 C          60.8470   86.1311    9.6126 C.ar    1  UNL1       -0.0007
     18 O          62.7914   87.1201   11.0297 O.3     1  UNL1       -0.3293
     19 C          61.6135   88.0237   11.2445 C.3     1  UNL1        0.2470
     20 C          61.6960   89.4694   10.8532 C.3     1  UNL1        0.4249
     21 F          61.7786   90.9151   10.4618 F       1  UNL1       -0.1674
     22 F          62.6864   89.1227    9.7813 F       1  UNL1       -0.1674
     23 F          60.7056   89.8161   11.9251 F       1  UNL1       -0.1674
@<TRIPOS>BOND
     1     1     2    1
     2     2     3    2
     3     3     4    1
     4     4     5    1
     5     5    18    1
     6    18    19    1
     7    19    20    1
     8    20    21    1
     9    20    22    1
    10    20    23    1
    11     5    12    1
    12    12    13   ar
    13    13    14   ar
    14    14    15   ar
    15    15    16   ar
    16    16    17   ar
    17     5     6    1
    18     6     7   ar
    19     7     8   ar
    20     8     9   ar
    21     9    10    2
    22     9    11   ar
    23    11     2    1
    24    17    12   ar
    25    11     6   ar
@<TRIPOS>MOLECULE
*****
 23 25 0 0 0
SMALL
GASTEIGER

@<TRIPOS>ATOM
      1 C          61.6538   88.0559    9.5664 C.3     1  UNL1        0.0512
      2 C          62.1268   87.1000   10.6211 C.2     1  UNL1        0.0551
      3 C          61.9133   85.6255   10.4471 C.2     1  UNL1        0.0470
      4 S          62.3862   84.6696   11.5018 S.3     1  UNL1       -0.0751
      5 C          63.0728   85.1881   12.7306 C.3     1  UNL1        0.2085
      6 C          63.2864   86.6626   12.9046 C.ar    1  UNL1        0.2066
      7 N          63.9268   87.4615   14.0007 N.ar    1  UNL1       -0.0545
      8 O          63.8495   88.9112   13.6234 O.2     1  UNL1       -0.2950
      9 C          63.1614   89.0083   12.2941 C.ar    1  UNL1        0.4470
     10 O          62.8722   90.2731   11.5413 O.2     1  UNL1       -0.2203
     11 N          62.8133   87.6185   11.8498 N.ar    1  UNL1       -0.2279
     12 C          63.1011   83.7162   13.0179 C.ar    1  UNL1        0.0189
     13 C          64.2938   82.8975   12.6216 C.ar    1  UNL1       -0.0007
     14 C          64.3222   81.4256   12.9089 C.ar    1  UNL1       -0.0002
     15 C          63.1577   80.7722   13.5925 C.ar    1  UNL1       -0.0000
     16 C          61.9650   81.5909   13.9887 C.ar    1  UNL1       -0.0002
     17 C          61.9366   83.0629   13.7015 C.ar    1  UNL1       -0.0007
     18 O          63.7692   85.1955   14.0591 O.3     1  UNL1       -0.3293
     19 C          63.0381   84.7522   15.2916 C.3     1  UNL1        0.2470
     20 C          63.1015   85.5811   16.5401 C.3     1  UNL1        0.4249
     21 F          63.1648   86.4101   17.7887 F       1  UNL1       -0.1674
     22 F          64.5940   85.6590   16.4127 F       1  UNL1       -0.1674
     23 F          61.6089   85.5032   16.6675 F       1  UNL1       -0.1674
@<TRIPOS>BOND
     1     1     2    1
     2     2     3    2
     3     3     4    1
     4     4     5    1
     5     5    18    1
     6    18    19    1
     7    19    20    1
     8    20    21    1
     9    20    22    1
    10    20    23    1
    11     5    12    1
    12    12    13   ar
    13    13    14   ar
    14    14    15   ar
    15    15    16   ar
    16    16    17   ar
    17     5     6    1
    18     6     7   ar
    19     7     8   ar
    20     8     9   ar
    21     9    10    2
    22     9    11   ar
    23    11     2    1
    24    17    12   ar
    25    11     6   ar
@<TRIPOS>MOLECULE
*****
 23 25 0 0 0
SMALL
GASTEIGER

@<TRIPOS>ATOM
      1 C          61.4633   89.3508   13.2639 C.3     1  UNL1        0.0512
      2 C          62.7429   90.1325   13.2222 C.2     1  UNL1        0.0551
      3 C          63.6156   90.2081   14.4398 C.2     1  UNL1        0.0470
      4 S          64.8951   90.9898   14.3981 S.3     1  UNL1       -0.0751
      5 C          65.3019   91.6959   13.1387 C.3     1  UNL1        0.2085
      6 C          64.4292   91.6202   11.9211 C.ar    1  UNL1        0.2066
      7 N          64.5688   92.2079   10.5481 N.ar    1  UNL1       -0.0545
      8 O          63.3755   91.7895    9.7413 O.2     1  UNL1       -0.2950
      9 C          62.4985   90.9431   10.6156 C.ar    1  UNL1        0.4470
     10 O          61.1984   90.3122   10.2133 O.2     1  UNL1       -0.2203
     11 N          63.1497   90.8385   11.9628 N.ar    1  UNL1       -0.2279
     12 C          66.4550   92.0607   14.0260 C.ar    1  UNL1        0.0189
     13 C          67.8618   91.8194   13.5649 C.ar    1  UNL1       -0.0007
     14 C          69.0149   92.1842   14.4521 C.ar    1  UNL1       -0.0002
     15 C          68.7612   92.7903   15.8006 C.ar    1  UNL1       -0.0000
     16 C          67.3544   93.0316   16.2617 C.ar    1  UNL1       -0.0002
     17 C          66.2013   92.6668   15.3744 C.ar    1  UNL1       -0.0007
     18 O          66.1092   92.5286   12.1875 O.3     1  UNL1       -0.3293
     19 C          66.1576   94.0189   12.3506 C.3     1  UNL1        0.2470
     20 C          66.5889   94.8852   11.2045 C.3     1  UNL1        0.4249
     21 F          67.0202   95.7515   10.0583 F       1  UNL1       -0.1674
     22 F          65.8934   96.0582   11.8293 F       1  UNL1       -0.1674
     23 F          67.2844   93.7123   10.5796 F       1  UNL1       -0.1674
@<TRIPOS>BOND
     1     1     2    1
     2     2     3    2
     3     3     4    1
     4     4     5    1
     5     5    18    1
     6    18    19    1
     7    19    20    1
     8    20    21    1
     9    20    22    1
    10    20    23    1
    11     5    12    1
    12    12    13   ar
    13    13    14   ar
    14    14    15   ar
    15    15    16   ar
    16    16    17   ar
    17     5     6    1
    18     6     7   ar
    19     7     8   ar
    20     8     9   ar
    21     9    10    2
    22     9    11   ar
    23    11     2    1
    24    17    12   ar
    25    11     6   ar
@<TRIPOS>MOLECULE
*****
 23 25 0 0 0
SMALL
GASTEIGER

@<TRIPOS>ATOM
      1 C          64.1587   88.6616   14.6587 C.3     1  UNL1        0.0512
      2 C          63.6624   87.6873   13.6318 C.2     1  UNL1        0.0551
      3 C          63.2334   88.1758   12.2801 C.2     1  UNL1        0.0470
      4 S          62.7372   87.2016   11.2533 S.3     1  UNL1       -0.0751
      5 C          62.6699   85.7387   11.5781 C.3     1  UNL1        0.2085
      6 C          63.0989   85.2501   12.9298 C.ar    1  UNL1        0.2066
      7 N          63.1441   83.8776   13.5331 N.ar    1  UNL1       -0.0545
      8 O          63.6684   84.0035   14.9328 O.2     1  UNL1       -0.2950
      9 C          63.9471   85.4540   15.1947 C.ar    1  UNL1        0.4470
     10 O          64.4837   86.0324   16.4704 O.2     1  UNL1       -0.2203
     11 N          63.5952   86.2244   13.9567 N.ar    1  UNL1       -0.2279
     12 C          62.1555   85.7166   10.1692 C.ar    1  UNL1        0.0189
     13 C          63.0128   85.1704    9.0662 C.ar    1  UNL1       -0.0007
     14 C          62.4986   85.1483    7.6574 C.ar    1  UNL1       -0.0002
     15 C          61.1268   85.6725    7.3514 C.ar    1  UNL1       -0.0000
     16 C          60.2694   86.2187    8.4544 C.ar    1  UNL1       -0.0002
     17 C          60.7837   86.2408    9.8633 C.ar    1  UNL1       -0.0007
     18 O          62.4239   84.2682   11.4137 O.3     1  UNL1       -0.3293
     19 C          63.5728   83.3404   11.1504 C.3     1  UNL1        0.2470
     20 C          63.3130   81.9378   10.6865 C.3     1  UNL1        0.4249
     21 F          63.0533   80.5351   10.2227 F       1  UNL1       -0.1674
     22 F          62.1069   81.8672   11.5755 F       1  UNL1       -0.1674
     23 F          64.5192   82.0084    9.7975 F       1  UNL1       -0.1674
@<TRIPOS>BOND
     1     1     2    1
     2     2     3    2
     3     3     4    1
     4     4     5    1
     5     5    18    1
     6    18    19    1
     7    19    20    1
     8    20    21    1
     9    20    22    1
    10    20    23    1
    11     5    12    1
    12    12    13   ar
    13    13    14   ar
    14    14    15   ar
    15    15    16   ar
    16    16    17   ar
    17     5     6    1
    18     6     7   ar
    19     7     8   ar
    20     8     9   ar
    21     9    10    2
    22     9    11   ar
    23    11     2    1
    24    17    12   ar
    25    11     6   ar
@<TRIPOS>MOLECULE
*****
 23 25 0 0 0
SMALL
GASTEIGER

@<TRIPOS>ATOM
      1 C          63.9982   83.5381   14.4357 C.3     1  UNL1        0.0512
      2 C          63.9030   85.0137   14.1838 C.2     1  UNL1        0.0551
      3 C          64.4228   85.9836   15.2032 C.2     1  UNL1        0.0470
      4 S          64.3277   87.4591   14.9514 S.3     1  UNL1       -0.0751
      5 C          63.7127   87.9650   13.6802 C.3     1  UNL1        0.2085
      6 C          63.1928   86.9952   12.6608 C.ar    1  UNL1        0.2066
      7 N          62.5403   87.1964   11.3253 N.ar    1  UNL1       -0.0545
      8 O          62.2322   85.8451   10.7517 O.2     1  UNL1       -0.2950
      9 C          62.6943   84.8087   11.7327 C.ar    1  UNL1        0.4470
     10 O          62.5823   83.3225   11.5635 O.2     1  UNL1       -0.2203
     11 N          63.2880   85.5195   12.9126 N.ar    1  UNL1       -0.2279
     12 C          64.0609   89.2676   14.3374 C.ar    1  UNL1        0.0189
     13 C          63.4849   89.6078   15.6800 C.ar    1  UNL1       -0.0007
     14 C          63.8331   90.9103   16.3373 C.ar    1  UNL1       -0.0002
     15 C          64.7574   91.8728   15.6521 C.ar    1  UNL1       -0.0000
     16 C          65.3335   91.5325   14.3096 C.ar    1  UNL1       -0.0002
     17 C          64.9852   90.2299   13.6522 C.ar    1  UNL1       -0.0007
     18 O          63.2186   88.9232   12.6373 O.3     1  UNL1       -0.3293
     19 C          61.9558   89.6988   12.8693 C.3     1  UNL1        0.2470
     20 C          61.1350   90.1619   11.7024 C.3     1  UNL1        0.4249
     21 F          60.3141   90.6250   10.5354 F       1  UNL1       -0.1674
     22 F          62.3708   90.7055   11.0488 F       1  UNL1       -0.1674
     23 F          59.8991   89.6183   12.3560 F       1  UNL1       -0.1674
@<TRIPOS>BOND
     1     1     2    1
     2     2     3    2
     3     3     4    1
     4     4     5    1
     5     5    18    1
     6    18    19    1
     7    19    20    1
     8    20    21    1
     9    20    22    1
    10    20    23    1
    11     5    12    1
    12    12    13   ar
    13    13    14   ar
    14    14    15   ar
    15    15    16   ar
    16    16    17   ar
    17     5     6    1
    18     6     7   ar
    19     7     8   ar
    20     8     9   ar
    21     9    10    2
    22     9    11   ar
    23    11     2    1
    24    17    12   ar
    25    11     6   ar
