@<TRIPOS>MOLECULE
*****
 32 35 0 0 0
SMALL
GASTEIGER

@<TRIPOS>ATOM
      1 N          62.5071   85.9831    9.0065 N.am    1  UNL1       -0.2683
      2 C          62.4137   85.1391   10.2430 C.2     1  UNL1        0.3047
      3 O          61.2934   85.3563   11.2165 O.2     1  UNL1       -0.2525
      4 N          63.4407   84.0779   10.5060 N.am    1  UNL1       -0.2863
      5 H          63.2423   85.8405    8.3675 H       1  UNL1        0.1564
      6 H          64.1760   83.9353    9.8670 H       1  UNL1        0.1512
      7 C          63.3895   89.8645   12.6678 C.3     1  UNL1        0.0521
      8 C          62.3987   89.6901   11.5553 C.ar    1  UNL1        0.0594
      9 C          62.4348   88.4544   10.7057 C.ar    1  UNL1        0.0160
     10 C          61.4440   88.2800    9.5931 C.ar    1  UNL1        0.0162
     11 C          61.4801   87.0443    8.7435 C.ar    1  UNL1        0.0516
     12 C          60.4893   86.8699    7.6309 C.ar    1  UNL1        0.0147
     13 C          59.4623   87.9311    7.3680 C.ar    1  UNL1        0.0013
     14 C          59.4262   89.1668    8.2176 C.ar    1  UNL1        0.0016
     15 C          60.4170   89.3412    9.3301 C.ar    1  UNL1        0.0204
     16 C          60.3809   90.5768   10.1797 C.ar    1  UNL1        0.0984
     17 N          61.3718   90.7513   11.2923 N.ar    1  UNL1       -0.2481
     18 C          63.3473   83.2339   11.7425 C.3     1  UNL1        0.1021
     19 C          63.0643   81.7653   11.6285 C.3     1  UNL1        0.0700
     20 C          62.9709   80.9213   12.8651 C.3     1  UNL1        0.2000
     21 O          63.1606   81.5460   14.2156 O.3     1  UNL1       -0.4771
     22 C          63.4437   83.0146   14.3295 C.ar    1  UNL1        0.1382
     23 C          63.6334   83.6393   15.6800 C.ar    1  UNL1        0.0662
     24 C          63.9165   85.1079   15.7939 C.ar    1  UNL1        0.1431
     25 F          64.1062   85.7326   17.1444 F       1  UNL1       -0.2041
     26 C          64.0099   85.9519   14.5574 C.ar    1  UNL1        0.0296
     27 C          63.8201   85.3272   13.2070 C.ar    1  UNL1        0.0026
     28 C          63.5371   83.8586   13.0930 C.ar    1  UNL1        0.0298
     29 C          62.7898   79.7149   13.7378 C.3     1  UNL1        0.2357
     30 F          61.4344   79.0882   13.8794 F       1  UNL1       -0.2303
     31 C          62.7183   79.8776   11.8178 C.3     1  UNL1        0.2357
     32 F          62.8600   80.2233   10.3650 F       1  UNL1       -0.2303
@<TRIPOS>BOND
     1     7     8    1
     2     8     9   ar
     3     9    10   ar
     4    10    11   ar
     5    11     1    1
     6     1     2   am
     7     2     3    2
     8     2     4   am
     9    18     4    1
    10    18    19    1
    11    19    20    1
    12    20    29    1
    13    29    30    1
    14    20    31    1
    15    31    32    1
    16    20    21    1
    17    21    22    1
    18    22    23   ar
    19    23    24   ar
    20    24    25    1
    21    24    26   ar
    22    26    27   ar
    23    27    28   ar
    24    11    12   ar
    25    12    13   ar
    26    13    14   ar
    27    14    15   ar
    28    15    16   ar
    29    16    17   ar
    30    17     8   ar
    31    15    10   ar
    32    28    18    1
    33    28    22   ar
    34     1     5    1
    35     4     6    1
@<TRIPOS>MOLECULE
*****
 32 35 0 0 0
SMALL
GASTEIGER

@<TRIPOS>ATOM
      1 N          62.2268   86.8416   11.5759 N.am    1  UNL1       -0.2683
      2 C          63.0211   87.8306   12.3766 C.2     1  UNL1        0.3047
      3 O          64.2638   87.3907   13.0922 O.2     1  UNL1       -0.2525
      4 N          62.5727   89.2594   12.4616 N.am    1  UNL1       -0.2863
      5 H          61.4111   87.1303   11.1062 H       1  UNL1        0.1564
      6 H          61.7570   89.5482   11.9919 H       1  UNL1        0.1512
      7 C          62.3584   85.0058   16.6614 C.3     1  UNL1        0.0521
      8 C          62.6618   84.3931   15.3263 C.ar    1  UNL1        0.0594
      9 C          62.5168   85.2092   14.0762 C.ar    1  UNL1        0.0160
     10 C          62.8202   84.5965   12.7411 C.ar    1  UNL1        0.0162
     11 C          62.6752   85.4127   11.4909 C.ar    1  UNL1        0.0516
     12 C          62.9786   84.8000   10.1558 C.ar    1  UNL1        0.0147
     13 C          63.4271   83.3711   10.0709 C.ar    1  UNL1        0.0013
     14 C          63.5721   82.5550   11.3210 C.ar    1  UNL1        0.0016
     15 C          63.2687   83.1677   12.6561 C.ar    1  UNL1        0.0204
     16 C          63.4137   82.3515   13.9062 C.ar    1  UNL1        0.0984
     17 N          63.1102   82.9642   15.2413 N.ar    1  UNL1       -0.2481
     18 C          63.3670   90.2484   13.2622 C.3     1  UNL1        0.1021
     19 C          63.3244   90.2067   14.7610 C.3     1  UNL1        0.0700
     20 C          64.1188   91.1957   15.5616 C.3     1  UNL1        0.2000
     21 O          64.9556   92.2263   14.8634 O.3     1  UNL1       -0.4771
     22 C          64.9981   92.2680   13.3646 C.ar    1  UNL1        0.1382
     23 C          65.8349   93.2986   12.6664 C.ar    1  UNL1        0.0662
     24 C          65.8774   93.3403   11.1676 C.ar    1  UNL1        0.1431
     25 F          66.7143   94.3710   10.4694 F       1  UNL1       -0.2041
     26 C          65.0831   92.3514   10.3670 C.ar    1  UNL1        0.0296
     27 C          64.2463   91.3208   11.0652 C.ar    1  UNL1        0.0026
     28 C          64.2038   91.2791   12.5640 C.ar    1  UNL1        0.0298
     29 C          64.6915   91.9132   16.7478 C.3     1  UNL1        0.2357
     30 F          65.9695   92.6866   16.6115 F       1  UNL1       -0.2303
     31 C          63.4809   90.4143   16.6718 C.3     1  UNL1        0.2357
     32 F          63.4196   88.9174   16.5963 F       1  UNL1       -0.2303
@<TRIPOS>BOND
     1     7     8    1
     2     8     9   ar
     3     9    10   ar
     4    10    11   ar
     5    11     1    1
     6     1     2   am
     7     2     3    2
     8     2     4   am
     9    18     4    1
    10    18    19    1
    11    19    20    1
    12    20    29    1
    13    29    30    1
    14    20    31    1
    15    31    32    1
    16    20    21    1
    17    21    22    1
    18    22    23   ar
    19    23    24   ar
    20    24    25    1
    21    24    26   ar
    22    26    27   ar
    23    27    28   ar
    24    11    12   ar
    25    12    13   ar
    26    13    14   ar
    27    14    15   ar
    28    15    16   ar
    29    16    17   ar
    30    17     8   ar
    31    15    10   ar
    32    28    18    1
    33    28    22   ar
    34     1     5    1
    35     4     6    1
@<TRIPOS>MOLECULE
*****
 32 35 0 0 0
SMALL
GASTEIGER

@<TRIPOS>ATOM
      1 N          62.9297   90.0601   13.5165 N.am    1  UNL1       -0.2683
      2 C          63.3067   88.6422   13.2042 C.2     1  UNL1        0.3047
      3 O          64.5386   88.0420   13.8141 O.2     1  UNL1       -0.2525
      4 N          62.4518   87.8247   12.2818 N.am    1  UNL1       -0.2863
      5 H          62.1211   90.4541   13.1162 H       1  UNL1        0.1564
      6 H          61.6433   88.2187   11.8815 H       1  UNL1        0.1512
      7 C          66.4266   92.7166   10.3599 C.3     1  UNL1        0.0521
      8 C          66.1936   92.6657   11.8408 C.ar    1  UNL1        0.0594
      9 C          65.1056   91.7972   12.3994 C.ar    1  UNL1        0.0160
     10 C          64.8726   91.7463   13.8803 C.ar    1  UNL1        0.0162
     11 C          63.7846   90.8777   14.4389 C.ar    1  UNL1        0.0516
     12 C          63.5515   90.8268   15.9198 C.ar    1  UNL1        0.0147
     13 C          64.4065   91.6444   16.8421 C.ar    1  UNL1        0.0013
     14 C          65.4944   92.5129   16.2835 C.ar    1  UNL1        0.0016
     15 C          65.7275   92.5638   14.8026 C.ar    1  UNL1        0.0204
     16 C          66.8154   93.4323   14.2440 C.ar    1  UNL1        0.0984
     17 N          67.0484   93.4832   12.7631 N.ar    1  UNL1       -0.2481
     18 C          62.8288   86.4069   11.9695 C.3     1  UNL1        0.1021
     19 C          63.3096   85.5002   13.0635 C.3     1  UNL1        0.0700
     20 C          63.6866   84.0823   12.7511 C.3     1  UNL1        0.2000
     21 O          63.5829   83.5712   11.3448 O.3     1  UNL1       -0.4771
     22 C          63.1022   84.4778   10.2507 C.ar    1  UNL1        0.1382
     23 C          62.9985   83.9667    8.8444 C.ar    1  UNL1        0.0662
     24 C          62.5178   84.8733    7.7503 C.ar    1  UNL1        0.1431
     25 F          62.4141   84.3621    6.3439 F       1  UNL1       -0.2041
     26 C          62.1408   86.2911    8.0627 C.ar    1  UNL1        0.0296
     27 C          62.2445   86.8023    9.4690 C.ar    1  UNL1        0.0026
     28 C          62.7252   85.8956   10.5631 C.ar    1  UNL1        0.0298
     29 C          64.1563   82.6720   12.9514 C.3     1  UNL1        0.2357
     30 F          63.5861   81.5655   12.1145 F       1  UNL1       -0.2303
     31 C          63.9534   84.1037   14.2271 C.3     1  UNL1        0.2357
     32 F          64.9079   85.1077   14.8022 F       1  UNL1       -0.2303
@<TRIPOS>BOND
     1     7     8    1
     2     8     9   ar
     3     9    10   ar
     4    10    11   ar
     5    11     1    1
     6     1     2   am
     7     2     3    2
     8     2     4   am
     9    18     4    1
    10    18    19    1
    11    19    20    1
    12    20    29    1
    13    29    30    1
    14    20    31    1
    15    31    32    1
    16    20    21    1
    17    21    22    1
    18    22    23   ar
    19    23    24   ar
    20    24    25    1
    21    24    26   ar
    22    26    27   ar
    23    27    28   ar
    24    11    12   ar
    25    12    13   ar
    26    13    14   ar
    27    14    15   ar
    28    15    16   ar
    29    16    17   ar
    30    17     8   ar
    31    15    10   ar
    32    28    18    1
    33    28    22   ar
    34     1     5    1
    35     4     6    1
@<TRIPOS>MOLECULE
*****
 32 35 0 0 0
SMALL
GASTEIGER

@<TRIPOS>ATOM
      1 N          63.1489   91.1989   13.6184 N.am    1  UNL1       -0.2683
      2 C          63.1066   89.8091   13.0555 C.2     1  UNL1        0.3047
      3 O          64.1695   88.8175   13.4254 O.2     1  UNL1       -0.2525
      4 N          62.0014   89.4110   12.1228 N.am    1  UNL1       -0.2863
      5 H          62.4513   91.8498   13.3756 H       1  UNL1        0.1564
      6 H          61.3037   90.0618   11.8800 H       1  UNL1        0.1512
      7 C          67.4625   92.1708   10.5042 C.3     1  UNL1        0.0521
      8 C          67.2131   92.2264   11.9823 C.ar    1  UNL1        0.0594
      9 C          65.8584   91.8839   12.5277 C.ar    1  UNL1        0.0160
     10 C          65.6089   91.9395   14.0057 C.ar    1  UNL1        0.0162
     11 C          64.2541   91.5970   14.5511 C.ar    1  UNL1        0.0516
     12 C          64.0046   91.6526   16.0291 C.ar    1  UNL1        0.0147
     13 C          65.1099   92.0508   16.9619 C.ar    1  UNL1        0.0013
     14 C          66.4646   92.3933   16.4165 C.ar    1  UNL1        0.0016
     15 C          66.7141   92.3376   14.9384 C.ar    1  UNL1        0.0204
     16 C          68.0688   92.6802   14.3931 C.ar    1  UNL1        0.0984
     17 N          68.3183   92.6245   12.9150 N.ar    1  UNL1       -0.2481
     18 C          61.9591   88.0213   11.5600 C.3     1  UNL1        0.1021
     19 C          62.6557   86.9013   12.2744 C.3     1  UNL1        0.0700
     20 C          62.6134   85.5115   11.7116 C.3     1  UNL1        0.2000
     21 O          61.8745   85.2417   10.4343 O.3     1  UNL1       -0.4771
     22 C          61.1780   86.3617    9.7199 C.ar    1  UNL1        0.1382
     23 C          60.4392   86.0920    8.4427 C.ar    1  UNL1        0.0662
     24 C          59.7426   87.2120    7.7283 C.ar    1  UNL1        0.1431
     25 F          59.0037   86.9422    6.4510 F       1  UNL1       -0.2041
     26 C          59.7849   88.6017    8.2911 C.ar    1  UNL1        0.0296
     27 C          60.5237   88.8715    9.5683 C.ar    1  UNL1        0.0026
     28 C          61.2203   87.7515   10.2827 C.ar    1  UNL1        0.0298
     29 C          62.8571   84.0376   11.5760 C.3     1  UNL1        0.2357
     30 F          63.5888   83.5053   10.3798 F       1  UNL1       -0.2303
     31 C          63.4369   85.2693   12.9417 C.3     1  UNL1        0.2357
     32 F          63.1637   84.0724   13.8035 F       1  UNL1       -0.2303
@<TRIPOS>BOND
     1     7     8    1
     2     8     9   ar
     3     9    10   ar
     4    10    11   ar
     5    11     1    1
     6     1     2   am
     7     2     3    2
     8     2     4   am
     9    18     4    1
    10    18    19    1
    11    19    20    1
    12    20    29    1
    13    29    30    1
    14    20    31    1
    15    31    32    1
    16    20    21    1
    17    21    22    1
    18    22    23   ar
    19    23    24   ar
    20    24    25    1
    21    24    26   ar
    22    26    27   ar
    23    27    28   ar
    24    11    12   ar
    25    12    13   ar
    26    13    14   ar
    27    14    15   ar
    28    15    16   ar
    29    16    17   ar
    30    17     8   ar
    31    15    10   ar
    32    28    18    1
    33    28    22   ar
    34     1     5    1
    35     4     6    1
@<TRIPOS>MOLECULE
*****
 32 35 0 0 0
SMALL
GASTEIGER

@<TRIPOS>ATOM
      1 N          62.3738   85.7471    9.1051 N.am    1  UNL1       -0.2683
      2 C          62.4257   85.2997   10.5359 C.2     1  UNL1        0.3047
      3 O          61.3824   85.7682   11.5065 O.2     1  UNL1       -0.2525
      4 N          63.5208   84.3838   10.9961 N.am    1  UNL1       -0.2863
      5 H          63.0585   85.4396    8.4680 H       1  UNL1        0.1564
      6 H          64.2055   84.0762   10.3590 H       1  UNL1        0.1512
      7 C          63.0150   90.3554   11.8623 C.3     1  UNL1        0.0521
      8 C          62.0334   89.8903   10.8279 C.ar    1  UNL1        0.0594
      9 C          62.1468   88.5092   10.2536 C.ar    1  UNL1        0.0160
     10 C          61.1652   88.0441    9.2192 C.ar    1  UNL1        0.0162
     11 C          61.2787   86.6630    8.6449 C.ar    1  UNL1        0.0516
     12 C          60.2970   86.1979    7.6105 C.ar    1  UNL1        0.0147
     13 C          59.2019   87.1139    7.1504 C.ar    1  UNL1        0.0013
     14 C          59.0884   88.4949    7.7246 C.ar    1  UNL1        0.0016
     15 C          60.0701   88.9600    8.7591 C.ar    1  UNL1        0.0204
     16 C          59.9566   90.3411    9.3333 C.ar    1  UNL1        0.0984
     17 N          60.9383   90.8062   10.3678 N.ar    1  UNL1       -0.2481
     18 C          63.5727   83.9364   12.4268 C.3     1  UNL1        0.1021
     19 C          63.9119   84.9191   13.5081 C.3     1  UNL1        0.0700
     20 C          63.9638   84.4717   14.9389 C.3     1  UNL1        0.2000
     21 O          63.6764   83.0416   15.2884 O.3     1  UNL1       -0.4771
     22 C          63.3371   82.0589   14.2071 C.ar    1  UNL1        0.1382
     23 C          63.0497   80.6288   14.5566 C.ar    1  UNL1        0.0662
     24 C          62.7105   79.6460   13.4753 C.ar    1  UNL1        0.1431
     25 F          62.4231   78.2159   13.8249 F       1  UNL1       -0.2041
     26 C          62.6586   80.0934   12.0446 C.ar    1  UNL1        0.0296
     27 C          62.9460   81.5235   11.6951 C.ar    1  UNL1        0.0026
     28 C          63.2853   82.5062   12.7764 C.ar    1  UNL1        0.0298
     29 C          64.1362   84.5278   16.4279 C.3     1  UNL1        0.2357
     30 F          63.7873   85.7797   17.1767 F       1  UNL1       -0.2303
     31 C          64.3110   85.9213   15.1066 C.3     1  UNL1        0.2357
     32 F          64.1736   86.8642   13.9481 F       1  UNL1       -0.2303
@<TRIPOS>BOND
     1     7     8    1
     2     8     9   ar
     3     9    10   ar
     4    10    11   ar
     5    11     1    1
     6     1     2   am
     7     2     3    2
     8     2     4   am
     9    18     4    1
    10    18    19    1
    11    19    20    1
    12    20    29    1
    13    29    30    1
    14    20    31    1
    15    31    32    1
    16    20    21    1
    17    21    22    1
    18    22    23   ar
    19    23    24   ar
    20    24    25    1
    21    24    26   ar
    22    26    27   ar
    23    27    28   ar
    24    11    12   ar
    25    12    13   ar
    26    13    14   ar
    27    14    15   ar
    28    15    16   ar
    29    16    17   ar
    30    17     8   ar
    31    15    10   ar
    32    28    18    1
    33    28    22   ar
    34     1     5    1
    35     4     6    1
@<TRIPOS>MOLECULE
*****
 32 35 0 0 0
SMALL
GASTEIGER

@<TRIPOS>ATOM
      1 N          61.4630   90.0164   11.2662 N.am    1  UNL1       -0.2683
      2 C          62.8318   90.6231   11.1743 C.2     1  UNL1        0.3047
      3 O          63.7713   90.1930   10.0870 O.2     1  UNL1       -0.2525
      4 N          63.2610   91.6598   12.1698 N.am    1  UNL1       -0.2863
      5 H          60.8464   90.2986   11.9799 H       1  UNL1        0.1564
      6 H          62.6444   91.9421   12.8834 H       1  UNL1        0.1512
      7 C          63.5478   85.3317   12.9861 C.3     1  UNL1        0.0521
      8 C          62.7047   85.7253   11.8096 C.ar    1  UNL1        0.0594
      9 C          62.2908   87.1556   11.6284 C.ar    1  UNL1        0.0160
     10 C          61.4477   87.5492   10.4519 C.ar    1  UNL1        0.0162
     11 C          61.0338   88.9796   10.2708 C.ar    1  UNL1        0.0516
     12 C          60.1907   89.3732    9.0943 C.ar    1  UNL1        0.0147
     13 C          59.7615   88.3364    8.0988 C.ar    1  UNL1        0.0013
     14 C          60.1754   86.9061    8.2799 C.ar    1  UNL1        0.0016
     15 C          61.0185   86.5125    9.4565 C.ar    1  UNL1        0.0204
     16 C          61.4323   85.0822    9.6376 C.ar    1  UNL1        0.0984
     17 N          62.2755   84.6886   10.8141 N.ar    1  UNL1       -0.2481
     18 C          64.6298   92.2665   12.0778 C.3     1  UNL1        0.1021
     19 C          65.0663   92.9444   10.8130 C.3     1  UNL1        0.0700
     20 C          66.4351   93.5511   10.7211 C.3     1  UNL1        0.2000
     21 O          67.3673   93.4798   11.8940 O.3     1  UNL1       -0.4771
     22 C          66.9308   92.8018   13.1588 C.ar    1  UNL1        0.1382
     23 C          67.8631   92.7305   14.3318 C.ar    1  UNL1        0.0662
     24 C          67.4266   92.0526   15.5966 C.ar    1  UNL1        0.1431
     25 F          68.3589   91.9813   16.7696 F       1  UNL1       -0.2041
     26 C          66.0579   91.4460   15.6886 C.ar    1  UNL1        0.0296
     27 C          65.1256   91.5172   14.5156 C.ar    1  UNL1        0.0026
     28 C          65.5621   92.1952   13.2508 C.ar    1  UNL1        0.0298
     29 C          67.6233   94.2691   10.1532 C.3     1  UNL1        0.2357
     30 F          68.7892   93.4879    9.6238 F       1  UNL1       -0.2303
     31 C          65.9155   93.8717    9.3509 C.3     1  UNL1        0.2357
     32 F          66.5509   94.9656    8.5449 F       1  UNL1       -0.2303
@<TRIPOS>BOND
     1     7     8    1
     2     8     9   ar
     3     9    10   ar
     4    10    11   ar
     5    11     1    1
     6     1     2   am
     7     2     3    2
     8     2     4   am
     9    18     4    1
    10    18    19    1
    11    19    20    1
    12    20    29    1
    13    29    30    1
    14    20    31    1
    15    31    32    1
    16    20    21    1
    17    21    22    1
    18    22    23   ar
    19    23    24   ar
    20    24    25    1
    21    24    26   ar
    22    26    27   ar
    23    27    28   ar
    24    11    12   ar
    25    12    13   ar
    26    13    14   ar
    27    14    15   ar
    28    15    16   ar
    29    16    17   ar
    30    17     8   ar
    31    15    10   ar
    32    28    18    1
    33    28    22   ar
    34     1     5    1
    35     4     6    1
@<TRIPOS>MOLECULE
*****
 32 35 0 0 0
SMALL
GASTEIGER

@<TRIPOS>ATOM
      1 N          61.3996   88.8631   11.6492 N.am    1  UNL1       -0.2683
      2 C          62.6404   89.4854   12.2178 C.2     1  UNL1        0.3047
      3 O          63.9508   88.7608   12.1299 O.2     1  UNL1       -0.2525
      4 N          62.5708   90.8323   12.8743 N.am    1  UNL1       -0.2863
      5 H          60.5395   89.3387   11.7069 H       1  UNL1        0.1564
      6 H          61.7107   91.3079   12.9320 H       1  UNL1        0.1512
      7 C          58.9095   89.3898    6.8772 C.3     1  UNL1        0.0521
      8 C          59.5842   88.2479    7.5778 C.ar    1  UNL1        0.0594
      9 C          60.1894   88.4530    8.9349 C.ar    1  UNL1        0.0160
     10 C          60.8641   87.3111    9.6355 C.ar    1  UNL1        0.0162
     11 C          61.4693   87.5162   10.9927 C.ar    1  UNL1        0.0516
     12 C          62.1441   86.3744   11.6933 C.ar    1  UNL1        0.0147
     13 C          62.2137   85.0274   11.0367 C.ar    1  UNL1        0.0013
     14 C          61.6086   84.8224    9.6797 C.ar    1  UNL1        0.0016
     15 C          60.9338   85.9642    8.9790 C.ar    1  UNL1        0.0204
     16 C          60.3287   85.7592    7.6220 C.ar    1  UNL1        0.0984
     17 N          59.6539   86.9011    6.9213 N.ar    1  UNL1       -0.2481
     18 C          63.8115   91.4545   13.4428 C.3     1  UNL1        0.1021
     19 C          64.0271   91.4764   14.9271 C.3     1  UNL1        0.0700
     20 C          65.2679   92.0987   15.4956 C.3     1  UNL1        0.2000
     21 O          66.2931   92.6991   14.5799 O.3     1  UNL1       -0.4771
     22 C          66.0775   92.6772   13.0957 C.ar    1  UNL1        0.1382
     23 C          67.1026   93.2776   12.1800 C.ar    1  UNL1        0.0662
     24 C          66.8870   93.2557   10.6957 C.ar    1  UNL1        0.1431
     25 F          67.9123   93.8561    9.7800 F       1  UNL1       -0.2041
     26 C          65.6463   92.6335   10.1271 C.ar    1  UNL1        0.0296
     27 C          64.6211   92.0331   11.0428 C.ar    1  UNL1        0.0026
     28 C          64.8367   92.0550   12.5271 C.ar    1  UNL1        0.0298
     29 C          66.2739   92.5691   16.5039 C.3     1  UNL1        0.2357
     30 F          67.7172   92.1875   16.3578 F       1  UNL1       -0.2303
     31 C          64.5921   91.6617   16.7615 C.3     1  UNL1        0.2357
     32 F          63.4747   90.6625   16.7087 F       1  UNL1       -0.2303
@<TRIPOS>BOND
     1     7     8    1
     2     8     9   ar
     3     9    10   ar
     4    10    11   ar
     5    11     1    1
     6     1     2   am
     7     2     3    2
     8     2     4   am
     9    18     4    1
    10    18    19    1
    11    19    20    1
    12    20    29    1
    13    29    30    1
    14    20    31    1
    15    31    32    1
    16    20    21    1
    17    21    22    1
    18    22    23   ar
    19    23    24   ar
    20    24    25    1
    21    24    26   ar
    22    26    27   ar
    23    27    28   ar
    24    11    12   ar
    25    12    13   ar
    26    13    14   ar
    27    14    15   ar
    28    15    16   ar
    29    16    17   ar
    30    17     8   ar
    31    15    10   ar
    32    28    18    1
    33    28    22   ar
    34     1     5    1
    35     4     6    1
@<TRIPOS>MOLECULE
*****
 32 35 0 0 0
SMALL
GASTEIGER

@<TRIPOS>ATOM
      1 N          63.3444   83.7582   10.5197 N.am    1  UNL1       -0.2683
      2 C          62.5040   84.9959   10.4098 C.2     1  UNL1        0.3047
      3 O          61.5315   85.3412   11.4985 O.2     1  UNL1       -0.2525
      4 N          62.6361   85.8881    9.2114 N.am    1  UNL1       -0.2863
      5 H          63.9826   83.5315    9.8052 H       1  UNL1        0.1564
      6 H          63.2743   85.6615    8.4969 H       1  UNL1        0.1512
      7 C          64.4972   86.8355   14.8152 C.3     1  UNL1        0.0521
      8 C          64.1099   85.3970   14.6402 C.ar    1  UNL1        0.0594
      9 C          63.8547   84.8507   13.2667 C.ar    1  UNL1        0.0160
     10 C          63.4674   83.4122   13.0917 C.ar    1  UNL1        0.0162
     11 C          63.2123   82.8659   11.7182 C.ar    1  UNL1        0.0516
     12 C          62.8250   81.4274   11.5432 C.ar    1  UNL1        0.0147
     13 C          62.6929   80.5351   12.7417 C.ar    1  UNL1        0.0013
     14 C          62.9481   81.0813   14.1152 C.ar    1  UNL1        0.0016
     15 C          63.3353   82.5199   14.2902 C.ar    1  UNL1        0.0204
     16 C          63.5905   83.0661   15.6637 C.ar    1  UNL1        0.0984
     17 N          63.9778   84.5047   15.8387 N.ar    1  UNL1       -0.2481
     18 C          61.7957   87.1257    9.1015 C.3     1  UNL1        0.1021
     19 C          60.7267   87.2158    8.0532 C.3     1  UNL1        0.0700
     20 C          59.8863   88.4535    7.9434 C.3     1  UNL1        0.2000
     21 O          60.1150   89.6010    8.8819 O.3     1  UNL1       -0.4771
     22 C          61.1841   89.5110    9.9302 C.ar    1  UNL1        0.1382
     23 C          61.4128   90.6585   10.8687 C.ar    1  UNL1        0.0662
     24 C          62.4819   90.5684   11.9170 C.ar    1  UNL1        0.1431
     25 F          62.7105   91.7161   12.8556 F       1  UNL1       -0.2041
     26 C          63.3222   89.3308   12.0269 C.ar    1  UNL1        0.0296
     27 C          63.0935   88.1833   11.0884 C.ar    1  UNL1        0.0026
     28 C          62.0244   88.2734   10.0401 C.ar    1  UNL1        0.0298
     29 C          58.8403   89.4076    7.4478 C.3     1  UNL1        0.2357
     30 F          58.8440   89.8457    6.0133 F       1  UNL1       -0.2303
     31 C          59.2943   87.6373    6.8328 C.3     1  UNL1        0.2357
     32 F          58.6233   86.3308    7.1376 F       1  UNL1       -0.2303
@<TRIPOS>BOND
     1     7     8    1
     2     8     9   ar
     3     9    10   ar
     4    10    11   ar
     5    11     1    1
     6     1     2   am
     7     2     3    2
     8     2     4   am
     9    18     4    1
    10    18    19    1
    11    19    20    1
    12    20    29    1
    13    29    30    1
    14    20    31    1
    15    31    32    1
    16    20    21    1
    17    21    22    1
    18    22    23   ar
    19    23    24   ar
    20    24    25    1
    21    24    26   ar
    22    26    27   ar
    23    27    28   ar
    24    11    12   ar
    25    12    13   ar
    26    13    14   ar
    27    14    15   ar
    28    15    16   ar
    29    16    17   ar
    30    17     8   ar
    31    15    10   ar
    32    28    18    1
    33    28    22   ar
    34     1     5    1
    35     4     6    1
@<TRIPOS>MOLECULE
*****
 32 35 0 0 0
SMALL
GASTEIGER

@<TRIPOS>ATOM
      1 N          57.1881   92.8234   -2.2460 N.am    1  UNL1       -0.2683
      2 C          58.4989   93.2868   -1.6828 C.2     1  UNL1        0.3047
      3 O          58.7549   94.7516   -1.4863 O.2     1  UNL1       -0.2525
      4 N          59.5536   92.2853   -1.3161 N.am    1  UNL1       -0.2863
      5 H          57.0200   91.8620   -2.3750 H       1  UNL1        0.1564
      6 H          59.3855   91.3238   -1.4451 H       1  UNL1        0.1512
      7 C          57.7414   93.7098   -7.5525 C.3     1  UNL1        0.0521
      8 C          56.8121   94.2393   -6.5009 C.ar    1  UNL1        0.0594
      9 C          56.9374   93.7674   -5.0826 C.ar    1  UNL1        0.0160
     10 C          56.0080   94.2970   -4.0311 C.ar    1  UNL1        0.0162
     11 C          56.1334   93.8250   -2.6127 C.ar    1  UNL1        0.0516
     12 C          55.2040   94.3545   -1.5612 C.ar    1  UNL1        0.0147
     13 C          54.1492   95.3561   -1.9279 C.ar    1  UNL1        0.0013
     14 C          54.0239   95.8281   -3.3462 C.ar    1  UNL1        0.0016
     15 C          54.9533   95.2985   -4.3978 C.ar    1  UNL1        0.0204
     16 C          54.8280   95.7704   -5.8160 C.ar    1  UNL1        0.0984
     17 N          55.7574   95.2409   -6.8676 N.ar    1  UNL1       -0.2481
     18 C          60.8643   92.7486   -0.7529 C.3     1  UNL1        0.1021
     19 C          61.1392   92.6141    0.7156 C.3     1  UNL1        0.0700
     20 C          62.4500   93.0774    1.2788 C.3     1  UNL1        0.2000
     21 O          63.4858   93.6753    0.3736 O.3     1  UNL1       -0.4771
     22 C          63.2110   93.8099   -1.0949 C.ar    1  UNL1        0.1382
     23 C          64.2468   94.4077   -2.0001 C.ar    1  UNL1        0.0662
     24 C          63.9719   94.5423   -3.4686 C.ar    1  UNL1        0.1431
     25 F          65.0079   95.1402   -4.3738 F       1  UNL1       -0.2041
     26 C          62.6612   94.0789   -4.0318 C.ar    1  UNL1        0.0296
     27 C          61.6254   93.4811   -3.1266 C.ar    1  UNL1        0.0026
     28 C          61.9002   93.3465   -1.6581 C.ar    1  UNL1        0.0298
     29 C          63.5313   93.3682    2.2768 C.3     1  UNL1        0.2357
     30 F          64.9428   93.5769    1.8140 F       1  UNL1       -0.2303
     31 C          61.7896   92.5805    2.5306 C.3     1  UNL1        0.2357
     32 F          62.5042   91.6060    3.4194 F       1  UNL1       -0.2303
@<TRIPOS>BOND
     1     7     8    1
     2     8     9   ar
     3     9    10   ar
     4    10    11   ar
     5    11     1    1
     6     1     2   am
     7     2     3    2
     8     2     4   am
     9    18     4    1
    10    18    19    1
    11    19    20    1
    12    20    29    1
    13    29    30    1
    14    20    31    1
    15    31    32    1
    16    20    21    1
    17    21    22    1
    18    22    23   ar
    19    23    24   ar
    20    24    25    1
    21    24    26   ar
    22    26    27   ar
    23    27    28   ar
    24    11    12   ar
    25    12    13   ar
    26    13    14   ar
    27    14    15   ar
    28    15    16   ar
    29    16    17   ar
    30    17     8   ar
    31    15    10   ar
    32    28    18    1
    33    28    22   ar
    34     1     5    1
    35     4     6    1
