@<TRIPOS>MOLECULE
*****
 33 37 0 0 0
SMALL
GASTEIGER

@<TRIPOS>ATOM
      1 C          66.8793   94.5433   11.5576 C.3     1  UNL1        0.2159
      2 N          65.9992   93.3712   11.8769 N.am    1  UNL1       -0.1449
      3 C          64.9115   92.9691   10.9257 C.2     1  UNL1        0.3728
      4 N          64.7036   93.7389    9.6551 N.2     1  UNL1       -0.1329
      5 N          64.0314   91.7970   11.2450 N.pl3   1  UNL1       -0.2247
      6 C          64.2392   91.0272   12.5155 C.3     1  UNL1        0.1559
      7 C          63.5340   89.8367   13.0944 C.3     1  UNL1        0.1327
      8 N          64.1860   89.5031   14.4035 N.pl3   1  UNL1       -0.2740
      9 C          65.2942   90.4875   14.6336 C.3     1  UNL1        0.1079
     10 C          65.3271   91.4294   13.4667 C.3     1  UNL1        0.1498
     11 C          66.2071   92.6015   13.1474 C.2     1  UNL1        0.2919
     12 O          67.2950   93.0037   14.0986 O.2     1  UNL1       -0.2563
     13 H          65.2812   94.5082    9.4455 H       1  UNL1        0.3058
     14 H          63.3174   91.5330   10.6206 H       1  UNL1        0.2454
     15 C          63.7979   88.3820   15.3214 C.ar    1  UNL1        0.2204
     16 N          63.0897   88.6787   16.6100 N.ar    1  UNL1       -0.2097
     17 C          62.7017   87.5575   17.5278 C.ar    1  UNL1        0.1330
     18 C          63.0218   86.1397   17.1571 C.ar    1  UNL1        0.1784
     19 F          62.6338   85.0186   18.0750 F       1  UNL1       -0.2009
     20 C          63.7300   85.8430   15.8685 C.ar    1  UNL1        0.1330
     21 N          64.1180   86.9642   14.9507 N.ar    1  UNL1       -0.2097
     22 C          63.1168   90.5101   11.6654 C.ar    1  UNL1        0.0397
     23 C          63.1091   89.2158   10.9071 C.ar    1  UNL1        0.0057
     24 C          61.7925   89.1023   10.1974 C.ar    1  UNL1        0.0068
     25 C          60.9865   90.3263   10.5170 C.ar    1  UNL1        0.0352
     26 S          61.8050   91.1963   11.4243 S.2     1  UNL1       -0.0878
     27 C          61.3581   87.9645    9.3218 C.ar    1  UNL1        0.0013
     28 C          59.9589   87.9246    8.7829 C.ar    1  UNL1        0.0001
     29 C          59.5245   86.7867    7.9073 C.ar    1  UNL1        0.0009
     30 C          60.4894   85.6887    7.5706 C.ar    1  UNL1        0.0114
     31 C          61.8887   85.7286    8.1096 C.ar    1  UNL1        0.0577
     32 CL         62.8537   84.6306    7.7729 Cl      1  UNL1       -0.0822
     33 C          62.3230   86.8664    8.9852 C.ar    1  UNL1        0.0114
@<TRIPOS>BOND
     1     1     2    1
     2     2     3    1
     3     3     4    2
     4     3     5    1
     5     5     6    1
     6     6    22    1
     7    22    23   ar
     8    23    24   ar
     9    24    27    1
    10    27    28   ar
    11    28    29   ar
    12    29    30   ar
    13    30    31   ar
    14    31    32    1
    15    31    33   ar
    16    24    25   ar
    17    25    26   ar
    18     6     7    1
    19     7     8    1
    20     8    15    1
    21    15    16   ar
    22    16    17   ar
    23    17    18   ar
    24    18    19    1
    25    18    20   ar
    26    20    21   ar
    27     8     9    1
    28    10     9    1
    29    10    11    1
    30    11    12    2
    31    11     2   am
    32    10     6    1
    33    26    22   ar
    34    21    15   ar
    35    33    27   ar
    36     4    13    1
    37     5    14    1
@<TRIPOS>MOLECULE
*****
 33 37 0 0 0
SMALL
GASTEIGER

@<TRIPOS>ATOM
      1 C          59.7673   89.5880    8.0116 C.3     1  UNL1        0.2159
      2 N          60.5633   88.8894    9.0739 N.am    1  UNL1       -0.1449
      3 C          61.3866   89.6875   10.0408 C.2     1  UNL1        0.3728
      4 N          61.4141   91.1843    9.9455 N.2     1  UNL1       -0.1329
      5 N          62.1827   88.9889   11.1031 N.pl3   1  UNL1       -0.2247
      6 C          62.1552   87.4922   11.1984 C.3     1  UNL1        0.1559
      7 C          62.8317   86.5334   12.1328 C.3     1  UNL1        0.1327
      8 N          62.4263   85.1427   11.7433 N.pl3   1  UNL1       -0.2740
      9 C          61.4994   85.2420   10.5682 C.3     1  UNL1        0.1079
     10 C          61.3318   86.6941   10.2314 C.3     1  UNL1        0.1498
     11 C          60.5359   87.3927    9.1691 C.2     1  UNL1        0.2919
     12 O          59.7125   86.5946    8.2021 O.2     1  UNL1       -0.2563
     13 H          60.8917   91.6428    9.2483 H       1  UNL1        0.3058
     14 H          62.7231   89.5127   11.7378 H       1  UNL1        0.2454
     15 C          62.8700   83.8753   12.4116 C.ar    1  UNL1        0.2204
     16 N          63.4452   83.9191   13.7963 N.ar    1  UNL1       -0.2097
     17 C          63.8889   82.6515   14.4645 C.ar    1  UNL1        0.1330
     18 C          63.7574   81.3402   13.7482 C.ar    1  UNL1        0.1784
     19 F          64.2011   80.0727   14.4165 F       1  UNL1       -0.2009
     20 C          63.1823   81.2964   12.3635 C.ar    1  UNL1        0.1330
     21 N          62.7386   82.5640   11.6953 N.ar    1  UNL1       -0.2097
     22 C          63.0204   88.1535   12.2299 C.ar    1  UNL1        0.0397
     23 C          63.5488   89.5560   12.1697 C.ar    1  UNL1        0.0057
     24 C          64.3641   89.7977   13.4054 C.ar    1  UNL1        0.0068
     25 C          64.3397   88.5445   14.2293 C.ar    1  UNL1        0.0352
     26 S          63.5092   87.5283   13.5028 S.2     1  UNL1       -0.0878
     27 C          65.0785   91.0692   13.7556 C.ar    1  UNL1        0.0013
     28 C          65.5185   91.3178   15.1679 C.ar    1  UNL1        0.0001
     29 C          66.2329   92.5894   15.5182 C.ar    1  UNL1        0.0009
     30 C          66.5073   93.6125   14.4561 C.ar    1  UNL1        0.0114
     31 C          66.0674   93.3639   13.0438 C.ar    1  UNL1        0.0577
     32 CL         66.3419   94.3869   11.9817 Cl      1  UNL1       -0.0822
     33 C          65.3530   92.0923   12.6936 C.ar    1  UNL1        0.0114
@<TRIPOS>BOND
     1     1     2    1
     2     2     3    1
     3     3     4    2
     4     3     5    1
     5     5     6    1
     6     6    22    1
     7    22    23   ar
     8    23    24   ar
     9    24    27    1
    10    27    28   ar
    11    28    29   ar
    12    29    30   ar
    13    30    31   ar
    14    31    32    1
    15    31    33   ar
    16    24    25   ar
    17    25    26   ar
    18     6     7    1
    19     7     8    1
    20     8    15    1
    21    15    16   ar
    22    16    17   ar
    23    17    18   ar
    24    18    19    1
    25    18    20   ar
    26    20    21   ar
    27     8     9    1
    28    10     9    1
    29    10    11    1
    30    11    12    2
    31    11     2   am
    32    10     6    1
    33    26    22   ar
    34    21    15   ar
    35    33    27   ar
    36     4    13    1
    37     5    14    1
@<TRIPOS>MOLECULE
*****
 33 37 0 0 0
SMALL
GASTEIGER

@<TRIPOS>ATOM
      1 C          59.3794   88.2082    7.5287 C.3     1  UNL1        0.2159
      2 N          60.2647   88.1734    8.7392 N.am    1  UNL1       -0.1449
      3 C          60.6908   86.8574    9.3192 C.2     1  UNL1        0.3728
      4 N          60.2317   85.5760    8.6886 N.2     1  UNL1       -0.1329
      5 N          61.5760   86.8226   10.5297 N.pl3   1  UNL1       -0.2247
      6 C          62.0351   88.1039   11.1601 C.3     1  UNL1        0.1559
      7 C          62.9049   88.3816   12.3502 C.3     1  UNL1        0.1327
      8 N          63.0163   89.8694   12.5057 N.pl3   1  UNL1       -0.2740
      9 C          62.2153   90.5111   11.4118 C.3     1  UNL1        0.1079
     10 C          61.6089   89.4200   10.5801 C.3     1  UNL1        0.1498
     11 C          60.7237   89.4547    9.3697 C.2     1  UNL1        0.2919
     12 O          60.2976   90.7708    8.7897 O.2     1  UNL1       -0.2563
     13 H          59.6507   85.5988    7.8942 H       1  UNL1        0.3058
     14 H          61.8557   85.9588   10.9103 H       1  UNL1        0.2454
     15 C          63.7924   90.5891   13.5686 C.ar    1  UNL1        0.2204
     16 N          65.0224   91.3658   13.2029 N.ar    1  UNL1       -0.2097
     17 C          65.7985   92.0855   14.2659 C.ar    1  UNL1        0.1330
     18 C          65.3445   92.0285   15.6944 C.ar    1  UNL1        0.1784
     19 F          66.1207   92.7482   16.7573 F       1  UNL1       -0.2009
     20 C          64.1145   91.2518   16.0601 C.ar    1  UNL1        0.1330
     21 N          63.3385   90.5321   14.9971 N.ar    1  UNL1       -0.2097
     22 C          62.5400   86.8703   11.8480 C.ar    1  UNL1        0.0397
     23 C          62.1277   85.4603   11.5446 C.ar    1  UNL1        0.0057
     24 C          62.8787   84.5486   12.4692 C.ar    1  UNL1        0.0068
     25 C          63.7552   85.3951   13.3440 C.ar    1  UNL1        0.0352
     26 S          63.5458   86.8300   12.9600 S.2     1  UNL1       -0.0878
     27 C          62.7720   83.0530   12.5116 C.ar    1  UNL1        0.0013
     28 C          62.4804   82.3583   13.8086 C.ar    1  UNL1        0.0001
     29 C          62.3737   80.8627   13.8509 C.ar    1  UNL1        0.0009
     30 C          62.5587   80.0618   12.5962 C.ar    1  UNL1        0.0114
     31 C          62.8504   80.7565   11.2992 C.ar    1  UNL1        0.0577
     32 CL         63.0354   79.9556   10.0445 Cl      1  UNL1       -0.0822
     33 C          62.9571   82.2521   11.2569 C.ar    1  UNL1        0.0114
@<TRIPOS>BOND
     1     1     2    1
     2     2     3    1
     3     3     4    2
     4     3     5    1
     5     5     6    1
     6     6    22    1
     7    22    23   ar
     8    23    24   ar
     9    24    27    1
    10    27    28   ar
    11    28    29   ar
    12    29    30   ar
    13    30    31   ar
    14    31    32    1
    15    31    33   ar
    16    24    25   ar
    17    25    26   ar
    18     6     7    1
    19     7     8    1
    20     8    15    1
    21    15    16   ar
    22    16    17   ar
    23    17    18   ar
    24    18    19    1
    25    18    20   ar
    26    20    21   ar
    27     8     9    1
    28    10     9    1
    29    10    11    1
    30    11    12    2
    31    11     2   am
    32    10     6    1
    33    26    22   ar
    34    21    15   ar
    35    33    27   ar
    36     4    13    1
    37     5    14    1
@<TRIPOS>MOLECULE
*****
 33 37 0 0 0
SMALL
GASTEIGER

@<TRIPOS>ATOM
      1 C          62.7709   78.3196   11.9458 C.3     1  UNL1        0.2159
      2 N          62.8021   79.8096   12.1162 N.am    1  UNL1       -0.1449
      3 C          62.7589   80.7032   10.9123 C.2     1  UNL1        0.3728
      4 N          62.6845   80.1069    9.5378 N.2     1  UNL1       -0.1329
      5 N          62.7901   82.1932   11.0827 N.pl3   1  UNL1       -0.2247
      6 C          62.8645   82.7895   12.4570 C.3     1  UNL1        0.1559
      7 C          62.9092   84.2112   12.9332 C.3     1  UNL1        0.1327
      8 N          62.9800   84.1962   14.4314 N.pl3   1  UNL1       -0.2740
      9 C          62.9791   82.7652   14.8812 C.3     1  UNL1        0.1079
     10 C          62.9077   81.8958   13.6610 C.3     1  UNL1        0.1498
     11 C          62.8765   80.4059   13.4906 C.2     1  UNL1        0.2919
     12 O          62.9197   79.5122   14.6945 O.2     1  UNL1       -0.2563
     13 H          62.6640   79.1290    9.4260 H       1  UNL1        0.3058
     14 H          62.7618   82.7798   10.2925 H       1  UNL1        0.2454
     15 C          63.0409   85.4007   15.3233 C.ar    1  UNL1        0.2204
     16 N          63.7949   86.6211   14.8850 N.ar    1  UNL1       -0.2097
     17 C          63.8558   87.8256   15.7770 C.ar    1  UNL1        0.1330
     18 C          63.1628   87.8097   17.1072 C.ar    1  UNL1        0.1784
     19 F          63.2238   89.0142   17.9991 F       1  UNL1       -0.2009
     20 C          62.4089   86.5893   17.5455 C.ar    1  UNL1        0.1330
     21 N          62.3479   85.3848   16.6535 N.ar    1  UNL1       -0.2097
     22 C          62.8280   83.8041   11.3529 C.ar    1  UNL1        0.0397
     23 C          61.9901   85.0480   11.3259 C.ar    1  UNL1        0.0057
     24 C          62.2672   85.7656   10.0381 C.ar    1  UNL1        0.0068
     25 C          63.2763   84.9653    9.2692 C.ar    1  UNL1        0.0352
     26 S          63.6228   83.7530   10.0818 S.2     1  UNL1       -0.0878
     27 C          61.6445   87.0569    9.5967 C.ar    1  UNL1        0.0013
     28 C          62.1410   88.3581   10.1539 C.ar    1  UNL1        0.0001
     29 C          61.5183   89.6493    9.7125 C.ar    1  UNL1        0.0009
     30 C          60.3990   89.6395    8.7139 C.ar    1  UNL1        0.0114
     31 C          59.9026   88.3384    8.1567 C.ar    1  UNL1        0.0577
     32 CL         58.7833   88.3284    7.1581 Cl      1  UNL1       -0.0822
     33 C          60.5253   87.0471    8.5981 C.ar    1  UNL1        0.0114
@<TRIPOS>BOND
     1     1     2    1
     2     2     3    1
     3     3     4    2
     4     3     5    1
     5     5     6    1
     6     6    22    1
     7    22    23   ar
     8    23    24   ar
     9    24    27    1
    10    27    28   ar
    11    28    29   ar
    12    29    30   ar
    13    30    31   ar
    14    31    32    1
    15    31    33   ar
    16    24    25   ar
    17    25    26   ar
    18     6     7    1
    19     7     8    1
    20     8    15    1
    21    15    16   ar
    22    16    17   ar
    23    17    18   ar
    24    18    19    1
    25    18    20   ar
    26    20    21   ar
    27     8     9    1
    28    10     9    1
    29    10    11    1
    30    11    12    2
    31    11     2   am
    32    10     6    1
    33    26    22   ar
    34    21    15   ar
    35    33    27   ar
    36     4    13    1
    37     5    14    1
@<TRIPOS>MOLECULE
*****
 33 37 0 0 0
SMALL
GASTEIGER

@<TRIPOS>ATOM
      1 C          58.3384   88.4241    6.6642 C.3     1  UNL1        0.2159
      2 N          59.3912   88.2010    7.7093 N.am    1  UNL1       -0.1449
      3 C          59.9226   86.8203    7.9558 C.2     1  UNL1        0.3728
      4 N          59.4013   85.6623    7.1573 N.2     1  UNL1       -0.1329
      5 N          60.9754   86.5972    9.0008 N.pl3   1  UNL1       -0.2247
      6 C          61.4967   87.7551    9.7993 C.3     1  UNL1        0.1559
      7 C          62.5252   87.8416   10.8877 C.3     1  UNL1        0.1327
      8 N          62.6294   89.2761   11.3138 N.pl3   1  UNL1       -0.2740
      9 C          61.6653   90.0760   10.4888 C.3     1  UNL1        0.1079
     10 C          60.9652   89.1359    9.5527 C.3     1  UNL1        0.1498
     11 C          59.9125   89.3589    8.5077 C.2     1  UNL1        0.2919
     12 O          59.3810   90.7398    8.2612 O.2     1  UNL1       -0.2563
     13 H          58.7103   85.8087    6.4714 H       1  UNL1        0.3058
     14 H          61.3242   85.6909    9.1626 H       1  UNL1        0.2454
     15 C          63.5381   89.8158   12.3782 C.ar    1  UNL1        0.2204
     16 N          63.7898   89.0195   13.6242 N.ar    1  UNL1       -0.2097
     17 C          64.6986   89.5594   14.6885 C.ar    1  UNL1        0.1330
     18 C          65.3557   90.8955   14.5068 C.ar    1  UNL1        0.1784
     19 F          66.2645   91.4352   15.5711 F       1  UNL1       -0.2009
     20 C          65.1041   91.6918   13.2608 C.ar    1  UNL1        0.1330
     21 N          64.1953   91.1519   12.1965 N.ar    1  UNL1       -0.2097
     22 C          62.1201   86.4382   10.1557 C.ar    1  UNL1        0.0397
     23 C          62.0434   85.7589   11.4908 C.ar    1  UNL1        0.0057
     24 C          62.8057   84.4702   11.3997 C.ar    1  UNL1        0.0068
     25 C          63.3535   84.3530   10.0083 C.ar    1  UNL1        0.0352
     26 S          62.9298   85.5693    9.2394 S.2     1  UNL1       -0.0878
     27 C          62.9881   83.4737   12.5059 C.ar    1  UNL1        0.0013
     28 C          63.6137   83.8975   13.8016 C.ar    1  UNL1        0.0001
     29 C          63.7962   82.9010   14.9078 C.ar    1  UNL1        0.0009
     30 C          63.3530   81.4805   14.7183 C.ar    1  UNL1        0.0114
     31 C          62.7274   81.0567   13.4225 C.ar    1  UNL1        0.0577
     32 CL         62.2841   79.6362   13.2329 Cl      1  UNL1       -0.0822
     33 C          62.5449   82.0532   12.3164 C.ar    1  UNL1        0.0114
@<TRIPOS>BOND
     1     1     2    1
     2     2     3    1
     3     3     4    2
     4     3     5    1
     5     5     6    1
     6     6    22    1
     7    22    23   ar
     8    23    24   ar
     9    24    27    1
    10    27    28   ar
    11    28    29   ar
    12    29    30   ar
    13    30    31   ar
    14    31    32    1
    15    31    33   ar
    16    24    25   ar
    17    25    26   ar
    18     6     7    1
    19     7     8    1
    20     8    15    1
    21    15    16   ar
    22    16    17   ar
    23    17    18   ar
    24    18    19    1
    25    18    20   ar
    26    20    21   ar
    27     8     9    1
    28    10     9    1
    29    10    11    1
    30    11    12    2
    31    11     2   am
    32    10     6    1
    33    26    22   ar
    34    21    15   ar
    35    33    27   ar
    36     4    13    1
    37     5    14    1
@<TRIPOS>MOLECULE
*****
 33 37 0 0 0
SMALL
GASTEIGER

@<TRIPOS>ATOM
      1 C          62.7417   78.1652   11.8616 C.3     1  UNL1        0.2159
      2 N          62.7790   79.6543   12.0387 N.am    1  UNL1       -0.1449
      3 C          62.7434   80.5535   10.8388 C.2     1  UNL1        0.3728
      4 N          62.6704   79.9637    9.4614 N.2     1  UNL1       -0.1329
      5 N          62.7808   82.0426   11.0159 N.pl3   1  UNL1       -0.2247
      6 C          62.8538   82.6323   12.3932 C.3     1  UNL1        0.1559
      7 C          62.9034   84.0517   12.8759 C.3     1  UNL1        0.1327
      8 N          62.9697   84.0296   14.3742 N.pl3   1  UNL1       -0.2740
      9 C          62.9611   82.5966   14.8176 C.3     1  UNL1        0.1079
     10 C          62.8894   81.7330   13.5932 C.3     1  UNL1        0.1498
     11 C          62.8521   80.2440   13.4160 C.2     1  UNL1        0.2919
     12 O          62.8877   79.3448   14.6160 O.2     1  UNL1       -0.2563
     13 H          62.6459   78.9864    9.3451 H       1  UNL1        0.3058
     14 H          62.7574   82.6328   10.2283 H       1  UNL1        0.2454
     15 C          63.0334   85.2298   15.2717 C.ar    1  UNL1        0.2204
     16 N          63.8080   86.4425   14.8484 N.ar    1  UNL1       -0.2097
     17 C          63.8717   87.6427   15.7460 C.ar    1  UNL1        0.1330
     18 C          63.1608   87.6301   17.0668 C.ar    1  UNL1        0.1784
     19 F          63.2246   88.8303   17.9643 F       1  UNL1       -0.2009
     20 C          62.3862   86.4174   17.4901 C.ar    1  UNL1        0.1330
     21 N          62.3225   85.2172   16.5925 N.ar    1  UNL1       -0.2097
     22 C          62.8250   83.6520   11.2935 C.ar    1  UNL1        0.0397
     23 C          61.9700   84.8839   11.2555 C.ar    1  UNL1        0.0057
     24 C          62.2628   85.6121    9.9772 C.ar    1  UNL1        0.0068
     25 C          63.2988   84.8304    9.2252 C.ar    1  UNL1        0.0352
     26 S          63.6463   83.6190   10.0388 S.2     1  UNL1       -0.0878
     27 C          61.6305   86.8966    9.5296 C.ar    1  UNL1        0.0013
     28 C          60.4931   86.8720    8.5520 C.ar    1  UNL1        0.0001
     29 C          59.8609   88.1564    8.1044 C.ar    1  UNL1        0.0009
     30 C          60.3661   89.4656    8.6343 C.ar    1  UNL1        0.0114
     31 C          61.5035   89.4903    9.6118 C.ar    1  UNL1        0.0577
     32 CL         62.0088   90.7994   10.1418 Cl      1  UNL1       -0.0822
     33 C          62.1357   88.2058   10.0595 C.ar    1  UNL1        0.0114
@<TRIPOS>BOND
     1     1     2    1
     2     2     3    1
     3     3     4    2
     4     3     5    1
     5     5     6    1
     6     6    22    1
     7    22    23   ar
     8    23    24   ar
     9    24    27    1
    10    27    28   ar
    11    28    29   ar
    12    29    30   ar
    13    30    31   ar
    14    31    32    1
    15    31    33   ar
    16    24    25   ar
    17    25    26   ar
    18     6     7    1
    19     7     8    1
    20     8    15    1
    21    15    16   ar
    22    16    17   ar
    23    17    18   ar
    24    18    19    1
    25    18    20   ar
    26    20    21   ar
    27     8     9    1
    28    10     9    1
    29    10    11    1
    30    11    12    2
    31    11     2   am
    32    10     6    1
    33    26    22   ar
    34    21    15   ar
    35    33    27   ar
    36     4    13    1
    37     5    14    1
@<TRIPOS>MOLECULE
*****
 33 37 0 0 0
SMALL
GASTEIGER

@<TRIPOS>ATOM
      1 C          58.9816   88.0860    6.4505 C.3     1  UNL1        0.2159
      2 N          59.8040   87.9903    7.7014 N.am    1  UNL1       -0.1449
      3 C          60.2719   89.2386    8.3887 C.2     1  UNL1        0.3728
      4 N          59.9174   90.5829    7.8253 N.2     1  UNL1       -0.1329
      5 N          61.0943   89.1429    9.6396 N.pl3   1  UNL1       -0.2247
      6 C          61.4487   87.7987   10.2030 C.3     1  UNL1        0.1559
      7 C          62.2395   87.3939   11.4116 C.3     1  UNL1        0.1327
      8 N          62.2603   85.8952   11.4712 N.pl3   1  UNL1       -0.2740
      9 C          61.4824   85.3738   10.2994 C.3     1  UNL1        0.1079
     10 C          60.9808   86.5503    9.5156 C.3     1  UNL1        0.1498
     11 C          60.1585   86.6461    8.2648 C.2     1  UNL1        0.2919
     12 O          59.6905   85.3976    7.5774 O.2     1  UNL1       -0.2563
     13 H          59.3776   90.6458    7.0043 H       1  UNL1        0.3058
     14 H          61.4014   89.9623   10.0907 H       1  UNL1        0.2454
     15 C          62.9398   85.0638   12.5186 C.ar    1  UNL1        0.2204
     16 N          62.9539   83.5688   12.3969 N.ar    1  UNL1       -0.2097
     17 C          63.6333   82.7375   13.4445 C.ar    1  UNL1        0.1330
     18 C          64.2987   83.4011   14.6136 C.ar    1  UNL1        0.1784
     19 F          64.9782   82.5697   15.6610 F       1  UNL1       -0.2009
     20 C          64.2847   84.8961   14.7353 C.ar    1  UNL1        0.1330
     21 N          63.6052   85.7274   13.6877 N.ar    1  UNL1       -0.2097
     22 C          61.9851   88.9534   10.9961 C.ar    1  UNL1        0.0397
     23 C          63.1892   89.7778   10.6491 C.ar    1  UNL1        0.0057
     24 C          63.3598   90.8204   11.7140 C.ar    1  UNL1        0.0068
     25 C          62.2610   90.6404   12.7191 C.ar    1  UNL1        0.0352
     26 S          61.4113   89.4865   12.2754 S.2     1  UNL1       -0.0878
     27 C          64.4395   91.8603   11.7648 C.ar    1  UNL1        0.0013
     28 C          64.8461   92.5812   10.5139 C.ar    1  UNL1        0.0001
     29 C          65.9258   93.6211   10.5647 C.ar    1  UNL1        0.0009
     30 C          66.5990   93.9403   11.8666 C.ar    1  UNL1        0.0114
     31 C          66.1924   93.2195   13.1176 C.ar    1  UNL1        0.0577
     32 CL         66.8656   93.5386   14.4196 Cl      1  UNL1       -0.0822
     33 C          65.1127   92.1795   13.0667 C.ar    1  UNL1        0.0114
@<TRIPOS>BOND
     1     1     2    1
     2     2     3    1
     3     3     4    2
     4     3     5    1
     5     5     6    1
     6     6    22    1
     7    22    23   ar
     8    23    24   ar
     9    24    27    1
    10    27    28   ar
    11    28    29   ar
    12    29    30   ar
    13    30    31   ar
    14    31    32    1
    15    31    33   ar
    16    24    25   ar
    17    25    26   ar
    18     6     7    1
    19     7     8    1
    20     8    15    1
    21    15    16   ar
    22    16    17   ar
    23    17    18   ar
    24    18    19    1
    25    18    20   ar
    26    20    21   ar
    27     8     9    1
    28    10     9    1
    29    10    11    1
    30    11    12    2
    31    11     2   am
    32    10     6    1
    33    26    22   ar
    34    21    15   ar
    35    33    27   ar
    36     4    13    1
    37     5    14    1
@<TRIPOS>MOLECULE
*****
 33 37 0 0 0
SMALL
GASTEIGER

@<TRIPOS>ATOM
      1 C          59.0439   87.9208    6.3573 C.3     1  UNL1        0.2159
      2 N          59.8085   87.8351    7.6450 N.am    1  UNL1       -0.1449
      3 C          60.1519   89.0861    8.3980 C.2     1  UNL1        0.3728
      4 N          59.7307   90.4228    7.8633 N.2     1  UNL1       -0.1329
      5 N          60.9165   89.0004    9.6857 N.pl3   1  UNL1       -0.2247
      6 C          61.3377   87.6637   10.2203 C.3     1  UNL1        0.1559
      7 C          62.0949   87.2693   11.4536 C.3     1  UNL1        0.1327
      8 N          62.2194   85.7745   11.4628 N.pl3   1  UNL1       -0.2740
      9 C          61.5392   85.2451   10.2352 C.3     1  UNL1        0.1079
     10 C          60.9942   86.4127    9.4673 C.3     1  UNL1        0.1498
     11 C          60.2296   86.4984    8.1796 C.2     1  UNL1        0.2919
     12 O          59.8862   85.2474    7.4266 O.2     1  UNL1       -0.2563
     13 H          59.2289   90.4791    7.0182 H       1  UNL1        0.3058
     14 H          61.1419   89.8215   10.1799 H       1  UNL1        0.2454
     15 C          62.9040   84.9533   12.5149 C.ar    1  UNL1        0.2204
     16 N          62.9641   83.4606   12.3799 N.ar    1  UNL1       -0.2097
     17 C          63.6487   82.6394   13.4321 C.ar    1  UNL1        0.1330
     18 C          64.2733   83.3108   14.6191 C.ar    1  UNL1        0.1784
     19 F          64.9579   82.4896   15.6712 F       1  UNL1       -0.2009
     20 C          64.2132   84.8035   14.7541 C.ar    1  UNL1        0.1330
     21 N          63.5286   85.6247   13.7019 N.ar    1  UNL1       -0.2097
     22 C          61.7508   88.8220   11.0791 C.ar    1  UNL1        0.0397
     23 C          63.1574   89.2849   11.3182 C.ar    1  UNL1        0.0057
     24 C          63.1057   90.4698   12.2365 C.ar    1  UNL1        0.0068
     25 C          61.6671   90.7393   12.5650 C.ar    1  UNL1        0.0352
     26 S          60.8297   89.7208   11.8497 S.2     1  UNL1       -0.0878
     27 C          64.2854   91.2486   12.7382 C.ar    1  UNL1        0.0013
     28 C          64.9444   90.8631   14.0294 C.ar    1  UNL1        0.0001
     29 C          66.1241   91.6419   14.5311 C.ar    1  UNL1        0.0009
     30 C          66.6449   92.8062   13.7417 C.ar    1  UNL1        0.0114
     31 C          65.9859   93.1917   12.4505 C.ar    1  UNL1        0.0577
     32 CL         66.5066   94.3560   11.6610 Cl      1  UNL1       -0.0822
     33 C          64.8062   92.4129   11.9488 C.ar    1  UNL1        0.0114
@<TRIPOS>BOND
     1     1     2    1
     2     2     3    1
     3     3     4    2
     4     3     5    1
     5     5     6    1
     6     6    22    1
     7    22    23   ar
     8    23    24   ar
     9    24    27    1
    10    27    28   ar
    11    28    29   ar
    12    29    30   ar
    13    30    31   ar
    14    31    32    1
    15    31    33   ar
    16    24    25   ar
    17    25    26   ar
    18     6     7    1
    19     7     8    1
    20     8    15    1
    21    15    16   ar
    22    16    17   ar
    23    17    18   ar
    24    18    19    1
    25    18    20   ar
    26    20    21   ar
    27     8     9    1
    28    10     9    1
    29    10    11    1
    30    11    12    2
    31    11     2   am
    32    10     6    1
    33    26    22   ar
    34    21    15   ar
    35    33    27   ar
    36     4    13    1
    37     5    14    1
@<TRIPOS>MOLECULE
*****
 33 37 0 0 0
SMALL
GASTEIGER

@<TRIPOS>ATOM
      1 C          63.4947   79.5984   13.7969 C.3     1  UNL1        0.2159
      2 N          63.4152   81.0551   13.4476 N.am    1  UNL1       -0.1449
      3 C          63.0770   81.4733   12.0475 C.2     1  UNL1        0.3728
      4 N          62.8182   80.4349   10.9963 N.2     1  UNL1       -0.1329
      5 N          62.9975   82.9300   11.6983 N.pl3   1  UNL1       -0.2247
      6 C          63.2563   83.9684   12.7493 C.3     1  UNL1        0.1559
      7 C          63.2502   85.4676   12.7020 C.3     1  UNL1        0.1327
      8 N          63.5847   85.9759   14.0730 N.pl3   1  UNL1       -0.2740
      9 C          63.7975   84.7909   14.9677 C.3     1  UNL1        0.1079
     10 C          63.5945   83.5501   14.1496 C.3     1  UNL1        0.1498
     11 C          63.6740   82.0935   14.4987 C.2     1  UNL1        0.2919
     12 O          64.0122   81.6752   15.8990 O.2     1  UNL1       -0.2563
     13 H          62.8704   79.4788   11.2255 H       1  UNL1        0.3058
     14 H          62.7755   83.2045   10.7792 H       1  UNL1        0.2454
     15 C          63.6883   87.4164   14.4783 C.ar    1  UNL1        0.2204
     16 N          63.4858   87.8086   15.9119 N.ar    1  UNL1       -0.2097
     17 C          63.5893   89.2492   16.3171 C.ar    1  UNL1        0.1330
     18 C          63.8953   90.2975   15.2888 C.ar    1  UNL1        0.1784
     19 F          63.9989   91.7380   15.6941 F       1  UNL1       -0.2009
     20 C          64.0978   89.9053   13.8552 C.ar    1  UNL1        0.1330
     21 N          63.9943   88.4647   13.4500 N.ar    1  UNL1       -0.2097
     22 C          62.9307   84.5348   11.3991 C.ar    1  UNL1        0.0397
     23 C          61.8637   85.5461   11.1012 C.ar    1  UNL1        0.0057
     24 C          61.8886   85.8257    9.6277 C.ar    1  UNL1        0.0068
     25 C          62.9710   84.9873    9.0149 C.ar    1  UNL1        0.0352
     26 S          63.6151   84.1895   10.1098 S.2     1  UNL1       -0.0878
     27 C          60.9890   86.7768    8.8954 C.ar    1  UNL1        0.0013
     28 C          60.2577   86.3224    7.6672 C.ar    1  UNL1        0.0001
     29 C          59.3581   87.2735    6.9349 C.ar    1  UNL1        0.0009
     30 C          59.1898   88.6791    7.4310 C.ar    1  UNL1        0.0114
     31 C          59.9210   89.1335    8.6593 C.ar    1  UNL1        0.0577
     32 CL         59.7527   90.5390    9.1554 Cl      1  UNL1       -0.0822
     33 C          60.8206   88.1824    9.3915 C.ar    1  UNL1        0.0114
@<TRIPOS>BOND
     1     1     2    1
     2     2     3    1
     3     3     4    2
     4     3     5    1
     5     5     6    1
     6     6    22    1
     7    22    23   ar
     8    23    24   ar
     9    24    27    1
    10    27    28   ar
    11    28    29   ar
    12    29    30   ar
    13    30    31   ar
    14    31    32    1
    15    31    33   ar
    16    24    25   ar
    17    25    26   ar
    18     6     7    1
    19     7     8    1
    20     8    15    1
    21    15    16   ar
    22    16    17   ar
    23    17    18   ar
    24    18    19    1
    25    18    20   ar
    26    20    21   ar
    27     8     9    1
    28    10     9    1
    29    10    11    1
    30    11    12    2
    31    11     2   am
    32    10     6    1
    33    26    22   ar
    34    21    15   ar
    35    33    27   ar
    36     4    13    1
    37     5    14    1
