@<TRIPOS>MOLECULE
*****
 31 33 0 0 0
SMALL
GASTEIGER

@<TRIPOS>ATOM
      1 N          63.8577   90.2067   13.0442 N.ar    1  UNL1       -0.2876
      2 C          63.0901   90.0904   11.7607 C.ar    1  UNL1        0.1187
      3 C          63.5375   91.1962   10.8514 C.ar    1  UNL1        0.0236
      4 C          64.5816   91.9959   11.5728 C.ar    1  UNL1        0.0180
      5 C          65.3776   93.2020   11.1707 C.ar    1  UNL1        0.0046
      6 C          66.3715   93.7965   12.1239 C.ar    1  UNL1        0.0373
      7 C          66.5694   93.1849   13.4792 C.ar    1  UNL1        0.1483
      8 C          65.7734   91.9788   13.8813 C.ar    1  UNL1        0.0547
      9 C          64.7795   91.3843   12.9281 C.ar    1  UNL1        0.0685
     10 C          63.9802   86.9551   15.3164 C.ar    1  UNL1        0.0606
     11 C          63.4644   87.4979   16.6161 C.ar    1  UNL1        0.0148
     12 C          63.0796   88.9436   16.7251 C.ar    1  UNL1        0.0043
     13 C          63.2107   89.8465   15.5345 C.ar    1  UNL1        0.0374
     14 C          63.7266   89.3038   14.2348 C.ar    1  UNL1        0.1474
     15 N          64.1114   87.8580   14.1257 N.ar    1  UNL1       -0.2323
     16 C          65.7698   85.1329   14.8401 C.3     1  UNL1        0.0067
     17 C          64.3650   85.5094   15.2072 C.3     1  UNL1        0.0459
     18 C          63.3451   84.4402   15.4652 C.3     1  UNL1        0.0476
     19 C          62.5147   83.9076   14.3352 C.2     1  UNL1        0.0507
     20 O          61.9813   82.5067   14.3918 O.co2   1  UNL1       -0.5492
     21 O          62.2177   84.7758   13.1487 O.co2   1  UNL1       -0.5492
     22 C          62.0567   89.0508   11.4425 C.2     1  UNL1        0.2590
     23 N          62.4069   87.5947   11.5264 N.am    1  UNL1       -0.3241
     24 O          60.6729   89.4674   11.0404 O.2     1  UNL1       -0.2688
     25 H          63.3152   87.3213   11.7903 H       1  UNL1        0.1453
     26 H          61.7286   86.9125   11.3175 H       1  UNL1        0.1453
     27 O          67.5634   93.7794   14.4325 O.3     1  UNL1       -0.4044
     28 C          68.1785   92.9273   15.5027 C.3     1  UNL1        0.5753
     29 F          68.7936   92.0752   16.5731 F       1  UNL1       -0.1328
     30 F          67.1100   93.3609   16.4620 F       1  UNL1       -0.1328
     31 F          69.2470   92.4936   14.5435 F       1  UNL1       -0.1328
@<TRIPOS>UNITY_ATOM_ATTR
20 1
charge -1
@<TRIPOS>BOND
     1    16    17    1
     2    17    18    1
     3    18    19    1
     4    19    20   ar
     5    19    21   ar
     6    17    10    1
     7    10    11   ar
     8    11    12   ar
     9    12    13   ar
    10    13    14   ar
    11    14     1    1
    12     1     2   ar
    13     2    22    1
    14    22    23   am
    15    22    24    2
    16     2     3   ar
    17     3     4   ar
    18     4     5   ar
    19     5     6   ar
    20     6     7   ar
    21     7    27    1
    22    27    28    1
    23    28    29    1
    24    28    30    1
    25    28    31    1
    26     7     8   ar
    27     8     9   ar
    28    14    15   ar
    29    15    10   ar
    30     9     1   ar
    31     9     4   ar
    32    23    25    1
    33    23    26    1
@<TRIPOS>MOLECULE
*****
 31 33 0 0 0
SMALL
GASTEIGER

@<TRIPOS>ATOM
      1 N          63.9027   90.4422   13.0704 N.ar    1  UNL1       -0.2876
      2 C          64.1147   90.1946   14.5345 C.ar    1  UNL1        0.1187
      3 C          65.0884   91.2170   15.0412 C.ar    1  UNL1        0.0236
      4 C          65.4781   92.0964   13.8903 C.ar    1  UNL1        0.0180
      5 C          66.4055   93.2714   13.7940 C.ar    1  UNL1        0.0046
      6 C          66.6001   93.9675   12.4797 C.ar    1  UNL1        0.0373
      7 C          65.8673   93.4886   11.2616 C.ar    1  UNL1        0.1483
      8 C          64.9399   92.3137   11.3579 C.ar    1  UNL1        0.0547
      9 C          64.7452   91.6176   12.6722 C.ar    1  UNL1        0.0685
     10 C          62.2623   87.3748   11.1597 C.ar    1  UNL1        0.0606
     11 C          61.2112   88.0745   10.3500 C.ar    1  UNL1        0.0148
     12 C          61.0573   89.5634   10.4471 C.ar    1  UNL1        0.0043
     13 C          61.9544   90.3526   11.3539 C.ar    1  UNL1        0.0374
     14 C          63.0055   89.6530   12.1636 C.ar    1  UNL1        0.1474
     15 N          63.1595   88.1640   12.0665 N.ar    1  UNL1       -0.2323
     16 C          62.5824   85.2350    9.7214 C.3     1  UNL1        0.0067
     17 C          62.4164   85.8859   11.0626 C.3     1  UNL1        0.0459
     18 C          62.4044   85.0479   12.3066 C.3     1  UNL1        0.0476
     19 C          63.6853   84.4770   12.8387 C.2     1  UNL1        0.0507
     20 O          64.2834   85.0243   14.1008 O.co2   1  UNL1       -0.5492
     21 O          64.3683   83.3587   12.1087 O.co2   1  UNL1       -0.5492
     22 C          63.4669   89.1143   15.3490 C.2     1  UNL1        0.2590
     23 N          63.9387   87.6960   15.2243 N.am    1  UNL1       -0.3241
     24 O          62.3472   89.4524   16.2881 O.2     1  UNL1       -0.2688
     25 H          64.6736   87.4741   14.6079 H       1  UNL1        0.1453
     26 H          63.5135   86.9870   15.7588 H       1  UNL1        0.1453
     27 O          66.0620   94.1848    9.9472 O.3     1  UNL1       -0.4044
     28 C          66.7452   95.5193    9.8993 C.3     1  UNL1        0.5753
     29 F          67.4286   96.8538    9.8513 F       1  UNL1       -0.1328
     30 F          68.0346   94.8459    9.5333 F       1  UNL1       -0.1328
     31 F          65.4558   96.1926   10.2653 F       1  UNL1       -0.1328
@<TRIPOS>UNITY_ATOM_ATTR
20 1
charge -1
@<TRIPOS>BOND
     1    16    17    1
     2    17    18    1
     3    18    19    1
     4    19    20   ar
     5    19    21   ar
     6    17    10    1
     7    10    11   ar
     8    11    12   ar
     9    12    13   ar
    10    13    14   ar
    11    14     1    1
    12     1     2   ar
    13     2    22    1
    14    22    23   am
    15    22    24    2
    16     2     3   ar
    17     3     4   ar
    18     4     5   ar
    19     5     6   ar
    20     6     7   ar
    21     7    27    1
    22    27    28    1
    23    28    29    1
    24    28    30    1
    25    28    31    1
    26     7     8   ar
    27     8     9   ar
    28    14    15   ar
    29    15    10   ar
    30     9     1   ar
    31     9     4   ar
    32    23    25    1
    33    23    26    1
@<TRIPOS>MOLECULE
*****
 31 33 0 0 0
SMALL
GASTEIGER

@<TRIPOS>ATOM
      1 N          64.1872   90.1992   13.7535 N.ar    1  UNL1       -0.2876
      2 C          65.1297   91.3554   13.9108 C.ar    1  UNL1        0.1187
      3 C          65.0984   92.1548   12.6420 C.ar    1  UNL1        0.0236
      4 C          64.1366   91.4927   11.7005 C.ar    1  UNL1        0.0180
      5 C          63.7008   91.8342   10.3065 C.ar    1  UNL1        0.0046
      6 C          62.7018   90.9670    9.5994 C.ar    1  UNL1        0.0373
      7 C          62.1387   89.7583   10.2863 C.ar    1  UNL1        0.1483
      8 C          62.5744   89.4168   11.6804 C.ar    1  UNL1        0.0547
      9 C          63.5734   90.2840   12.3875 C.ar    1  UNL1        0.0685
     10 C          63.9165   86.6477   15.5041 C.ar    1  UNL1        0.0606
     11 C          63.3483   87.0318   16.8381 C.ar    1  UNL1        0.0148
     12 C          63.0597   88.4717   17.1439 C.ar    1  UNL1        0.0043
     13 C          63.3394   89.5274   16.1157 C.ar    1  UNL1        0.0374
     14 C          63.9076   89.1434   14.7817 C.ar    1  UNL1        0.1474
     15 N          64.1961   87.7035   14.4759 N.ar    1  UNL1       -0.2323
     16 C          65.5302   84.8162   14.6147 C.3     1  UNL1        0.0067
     17 C          64.2050   85.2079   15.1982 C.3     1  UNL1        0.0459
     18 C          63.1685   84.1598   15.4757 C.3     1  UNL1        0.0476
     19 C          62.7307   83.2301   14.3831 C.2     1  UNL1        0.0507
     20 O          62.5807   83.7393   12.9801 O.co2   1  UNL1       -0.5492
     21 O          62.4430   81.7910   14.6933 O.co2   1  UNL1       -0.5492
     22 C          65.9581   91.6589   15.1240 C.2     1  UNL1        0.2590
     23 N          65.3668   92.4403   16.2596 N.am    1  UNL1       -0.3241
     24 O          67.3778   91.1810   15.2015 O.2     1  UNL1       -0.2688
     25 H          64.4350   92.7540   16.2087 H       1  UNL1        0.1453
     26 H          65.9105   92.6395   17.0558 H       1  UNL1        0.1453
     27 O          61.1397   88.8911    9.5792 O.3     1  UNL1       -0.4044
     28 C          61.0235   87.4383    9.9339 C.3     1  UNL1        0.5753
     29 F          60.9073   85.9854   10.2887 F       1  UNL1       -0.1328
     30 F          59.7705   87.7271   10.7063 F       1  UNL1       -0.1328
     31 F          62.2765   87.1495    9.1615 F       1  UNL1       -0.1328
@<TRIPOS>UNITY_ATOM_ATTR
20 1
charge -1
@<TRIPOS>BOND
     1    16    17    1
     2    17    18    1
     3    18    19    1
     4    19    20   ar
     5    19    21   ar
     6    17    10    1
     7    10    11   ar
     8    11    12   ar
     9    12    13   ar
    10    13    14   ar
    11    14     1    1
    12     1     2   ar
    13     2    22    1
    14    22    23   am
    15    22    24    2
    16     2     3   ar
    17     3     4   ar
    18     4     5   ar
    19     5     6   ar
    20     6     7   ar
    21     7    27    1
    22    27    28    1
    23    28    29    1
    24    28    30    1
    25    28    31    1
    26     7     8   ar
    27     8     9   ar
    28    14    15   ar
    29    15    10   ar
    30     9     1   ar
    31     9     4   ar
    32    23    25    1
    33    23    26    1
@<TRIPOS>MOLECULE
*****
 31 33 0 0 0
SMALL
GASTEIGER

@<TRIPOS>ATOM
      1 N          62.2246   86.6864   10.4724 N.ar    1  UNL1       -0.2876
      2 C          61.3472   87.1288    9.3391 C.ar    1  UNL1        0.1187
      3 C          61.1562   88.6122    9.4526 C.ar    1  UNL1        0.0236
      4 C          61.9156   89.0866   10.6561 C.ar    1  UNL1        0.0180
      5 C          62.0911   90.4486   11.2595 C.ar    1  UNL1        0.0046
      6 C          62.9269   90.6203   12.4931 C.ar    1  UNL1        0.0373
      7 C          63.5872   89.4301   13.1233 C.ar    1  UNL1        0.1483
      8 C          63.4117   88.0681   12.5200 C.ar    1  UNL1        0.0547
      9 C          62.5759   87.8963   11.2864 C.ar    1  UNL1        0.0685
     10 C          62.8036   83.2284   12.3319 C.ar    1  UNL1        0.0606
     11 C          63.5672   82.4693   11.2876 C.ar    1  UNL1        0.0148
     12 C          63.8833   83.1159    9.9715 C.ar    1  UNL1        0.0043
     13 C          63.4357   84.5216    9.6998 C.ar    1  UNL1        0.0374
     14 C          62.6721   85.2807   10.7441 C.ar    1  UNL1        0.1474
     15 N          62.3560   84.6341   12.0602 N.ar    1  UNL1       -0.2323
     16 C          61.5258   81.4323   13.7070 C.3     1  UNL1        0.0067
     17 C          62.4875   82.5819   13.6480 C.3     1  UNL1        0.0459
     18 C          63.1331   83.0850   14.9050 C.3     1  UNL1        0.0476
     19 C          63.1839   84.5578   15.1844 C.2     1  UNL1        0.0507
     20 O          64.3779   85.3609   14.7610 O.co2   1  UNL1       -0.5492
     21 O          62.0405   85.2277   15.8873 O.co2   1  UNL1       -0.5492
     22 C          60.7632   86.2433    8.2785 C.2     1  UNL1        0.2590
     23 N          59.2760   86.1705    8.0973 N.am    1  UNL1       -0.3241
     24 O          61.6665   85.4305    7.3990 O.2     1  UNL1       -0.2688
     25 H          58.6831   86.7039    8.6745 H       1  UNL1        0.1453
     26 H          58.8928   85.5893    7.4012 H       1  UNL1        0.1453
     27 O          64.4231   89.6018   14.3570 O.3     1  UNL1       -0.4044
     28 C          63.7667   89.6719   15.7039 C.3     1  UNL1        0.5753
     29 F          63.1102   89.7420   17.0509 F       1  UNL1       -0.1328
     30 F          63.7464   91.1691   15.6162 F       1  UNL1       -0.1328
     31 F          63.7869   88.1746   15.7917 F       1  UNL1       -0.1328
@<TRIPOS>UNITY_ATOM_ATTR
20 1
charge -1
@<TRIPOS>BOND
     1    16    17    1
     2    17    18    1
     3    18    19    1
     4    19    20   ar
     5    19    21   ar
     6    17    10    1
     7    10    11   ar
     8    11    12   ar
     9    12    13   ar
    10    13    14   ar
    11    14     1    1
    12     1     2   ar
    13     2    22    1
    14    22    23   am
    15    22    24    2
    16     2     3   ar
    17     3     4   ar
    18     4     5   ar
    19     5     6   ar
    20     6     7   ar
    21     7    27    1
    22    27    28    1
    23    28    29    1
    24    28    30    1
    25    28    31    1
    26     7     8   ar
    27     8     9   ar
    28    14    15   ar
    29    15    10   ar
    30     9     1   ar
    31     9     4   ar
    32    23    25    1
    33    23    26    1
@<TRIPOS>MOLECULE
*****
 31 33 0 0 0
SMALL
GASTEIGER

@<TRIPOS>ATOM
      1 N          62.8354   88.5595   12.0133 N.ar    1  UNL1       -0.2876
      2 C          61.9734   88.9511   10.8498 C.ar    1  UNL1        0.1187
      3 C          61.5027   87.6951   10.1783 C.ar    1  UNL1        0.0236
      4 C          62.0738   86.5273   10.9268 C.ar    1  UNL1        0.0180
      5 C          61.9502   85.0465   10.7221 C.ar    1  UNL1        0.0046
      6 C          62.6502   84.1000   11.6516 C.ar    1  UNL1        0.0373
      7 C          63.4739   84.6342   12.7857 C.ar    1  UNL1        0.1483
      8 C          63.5975   86.1150   12.9903 C.ar    1  UNL1        0.0547
      9 C          62.8974   87.0616   12.0609 C.ar    1  UNL1        0.0685
     10 C          65.0065   91.5872   13.3808 C.ar    1  UNL1        0.0606
     11 C          64.8769   91.3831   14.8612 C.ar    1  UNL1        0.0148
     12 C          64.0668   90.2378   15.3922 C.ar    1  UNL1        0.0043
     13 C          63.3863   89.2966   14.4429 C.ar    1  UNL1        0.0374
     14 C          63.5159   89.5007   12.9626 C.ar    1  UNL1        0.1474
     15 N          64.3260   90.6461   12.4315 N.ar    1  UNL1       -0.2323
     16 C          66.5290   93.6506   13.7980 C.3     1  UNL1        0.0067
     17 C          65.8166   92.7325   12.8496 C.3     1  UNL1        0.0459
     18 C          65.9142   92.9596   11.3701 C.3     1  UNL1        0.0476
     19 C          67.2494   93.2193   10.7378 C.2     1  UNL1        0.0507
     20 O          68.3038   92.1524   10.7465 O.co2   1  UNL1       -0.5492
     21 O          67.5302   94.5460   10.0967 O.co2   1  UNL1       -0.5492
     22 C          61.6406   90.3526   10.4314 C.2     1  UNL1        0.2590
     23 N          62.7174   91.2533    9.9030 N.am    1  UNL1       -0.3241
     24 O          60.2310   90.8534   10.5412 O.2     1  UNL1       -0.2688
     25 H          63.6426   90.9246    9.8309 H       1  UNL1        0.1453
     26 H          62.4990   92.1731    9.6284 H       1  UNL1        0.1453
     27 O          64.1739   83.6876   13.7152 O.3     1  UNL1       -0.4044
     28 C          63.7543   82.2488   13.7763 C.3     1  UNL1        0.5753
     29 F          63.3345   80.8100   13.8375 F       1  UNL1       -0.1328
     30 F          62.7150   82.5955   14.8008 F       1  UNL1       -0.1328
     31 F          64.7935   81.9022   12.7518 F       1  UNL1       -0.1328
@<TRIPOS>UNITY_ATOM_ATTR
20 1
charge -1
@<TRIPOS>BOND
     1    16    17    1
     2    17    18    1
     3    18    19    1
     4    19    20   ar
     5    19    21   ar
     6    17    10    1
     7    10    11   ar
     8    11    12   ar
     9    12    13   ar
    10    13    14   ar
    11    14     1    1
    12     1     2   ar
    13     2    22    1
    14    22    23   am
    15    22    24    2
    16     2     3   ar
    17     3     4   ar
    18     4     5   ar
    19     5     6   ar
    20     6     7   ar
    21     7    27    1
    22    27    28    1
    23    28    29    1
    24    28    30    1
    25    28    31    1
    26     7     8   ar
    27     8     9   ar
    28    14    15   ar
    29    15    10   ar
    30     9     1   ar
    31     9     4   ar
    32    23    25    1
    33    23    26    1
@<TRIPOS>MOLECULE
*****
 31 33 0 0 0
SMALL
GASTEIGER

@<TRIPOS>ATOM
      1 N          63.7447   89.0268   13.0640 N.ar    1  UNL1       -0.2876
      2 C          62.8133   89.4511   11.9675 C.ar    1  UNL1        0.1187
      3 C          63.1699   90.8538   11.5735 C.ar    1  UNL1        0.0236
      4 C          64.3216   91.2964   12.4265 C.ar    1  UNL1        0.0180
      5 C          65.0927   92.5817   12.4834 C.ar    1  UNL1        0.0046
      6 C          66.2192   92.7378   13.4615 C.ar    1  UNL1        0.0373
      7 C          66.5745   91.6086   14.3827 C.ar    1  UNL1        0.1483
      8 C          65.8033   90.3233   14.3258 C.ar    1  UNL1        0.0547
      9 C          64.6769   90.1672   13.3477 C.ar    1  UNL1        0.0685
     10 C          63.4999   85.1108   13.6603 C.ar    1  UNL1        0.0606
     11 C          63.7428   85.0333   15.1384 C.ar    1  UNL1        0.0148
     12 C          63.9864   86.2871   15.9251 C.ar    1  UNL1        0.0043
     13 C          63.9871   87.6182   15.2336 C.ar    1  UNL1        0.0374
     14 C          63.7441   87.6956   13.7555 C.ar    1  UNL1        0.1474
     15 N          63.5005   86.4419   12.9688 N.ar    1  UNL1       -0.2323
     16 C          62.7082   83.9410   11.4798 C.3     1  UNL1        0.0067
     17 C          63.2563   83.8571   12.8735 C.3     1  UNL1        0.0459
     18 C          63.5607   82.5196   13.4805 C.3     1  UNL1        0.0476
     19 C          62.5238   81.4359   13.4659 C.2     1  UNL1        0.0507
     20 O          62.6834   80.2573   12.5518 O.co2   1  UNL1       -0.5492
     21 O          61.3271   81.5307   14.3653 O.co2   1  UNL1       -0.5492
     22 C          61.7177   88.6189   11.3699 C.2     1  UNL1        0.2590
     23 N          62.0445   87.5709   10.3478 N.am    1  UNL1       -0.3241
     24 O          60.2954   88.8347   11.7945 O.2     1  UNL1       -0.2688
     25 H          62.9780   87.4292   10.0691 H       1  UNL1        0.1453
     26 H          61.3254   87.0247    9.9556 H       1  UNL1        0.1453
     27 O          67.7010   91.7648   15.3609 O.3     1  UNL1       -0.4044
     28 C          68.1664   93.1348   15.7563 C.3     1  UNL1        0.5753
     29 F          68.6318   94.5048   16.1518 F       1  UNL1       -0.1328
     30 F          69.3957   92.9600   14.9149 F       1  UNL1       -0.1328
     31 F          66.9370   93.3095   16.5978 F       1  UNL1       -0.1328
@<TRIPOS>UNITY_ATOM_ATTR
20 1
charge -1
@<TRIPOS>BOND
     1    16    17    1
     2    17    18    1
     3    18    19    1
     4    19    20   ar
     5    19    21   ar
     6    17    10    1
     7    10    11   ar
     8    11    12   ar
     9    12    13   ar
    10    13    14   ar
    11    14     1    1
    12     1     2   ar
    13     2    22    1
    14    22    23   am
    15    22    24    2
    16     2     3   ar
    17     3     4   ar
    18     4     5   ar
    19     5     6   ar
    20     6     7   ar
    21     7    27    1
    22    27    28    1
    23    28    29    1
    24    28    30    1
    25    28    31    1
    26     7     8   ar
    27     8     9   ar
    28    14    15   ar
    29    15    10   ar
    30     9     1   ar
    31     9     4   ar
    32    23    25    1
    33    23    26    1
@<TRIPOS>MOLECULE
*****
 31 33 0 0 0
SMALL
GASTEIGER

@<TRIPOS>ATOM
      1 N          63.4973   87.7902   13.0728 N.ar    1  UNL1       -0.2876
      2 C          64.1554   88.3010   14.3201 C.ar    1  UNL1        0.1187
      3 C          64.5876   87.1176   15.1342 C.ar    1  UNL1        0.0236
      4 C          64.1966   85.8753   14.3899 C.ar    1  UNL1        0.0180
      5 C          64.3671   84.4193   14.7077 C.ar    1  UNL1        0.0046
      6 C          63.8637   83.3791   13.7514 C.ar    1  UNL1        0.0373
      7 C          63.1899   83.7948   12.4774 C.ar    1  UNL1        0.1483
      8 C          63.0194   85.2507   12.1596 C.ar    1  UNL1        0.0547
      9 C          63.5227   86.2910   13.1159 C.ar    1  UNL1        0.0685
     10 C          61.3734   88.8658    9.8975 C.ar    1  UNL1        0.0606
     11 C          61.7528   90.3122    9.7794 C.ar    1  UNL1        0.0148
     12 C          62.7137   90.9179   10.7590 C.ar    1  UNL1        0.0043
     13 C          63.2952   90.0772   11.8568 C.ar    1  UNL1        0.0374
     14 C          62.9158   88.6309   11.9750 C.ar    1  UNL1        0.1474
     15 N          61.9549   88.0251   10.9953 N.ar    1  UNL1       -0.2323
     16 C          59.7170   89.1305    7.9136 C.3     1  UNL1        0.0067
     17 C          60.4125   88.2601    8.9179 C.3     1  UNL1        0.0459
     18 C          60.1471   86.7839    8.9425 C.3     1  UNL1        0.0476
     19 C          60.9156   85.8685    8.0363 C.2     1  UNL1        0.0507
     20 O          60.2181   85.1750    6.9037 O.co2   1  UNL1       -0.5492
     21 O          62.3817   85.6465    8.2625 O.co2   1  UNL1       -0.5492
     22 C          64.3476   89.7423   14.6888 C.2     1  UNL1        0.2590
     23 N          63.2620   90.4825   15.4123 N.am    1  UNL1       -0.3241
     24 O          65.6252   90.4433   14.3338 O.2     1  UNL1       -0.2688
     25 H          62.4234   90.0224   15.6453 H       1  UNL1        0.1453
     26 H          63.3882   91.4285   15.6543 H       1  UNL1        0.1453
     27 O          62.6866   82.7544   11.5211 O.3     1  UNL1       -0.4044
     28 C          62.5954   81.3207   11.9525 C.3     1  UNL1        0.5753
     29 F          62.5042   79.8869   12.3838 F       1  UNL1       -0.1328
     30 F          61.6994   81.7191   13.0875 F       1  UNL1       -0.1328
     31 F          63.4914   80.9222   10.8174 F       1  UNL1       -0.1328
@<TRIPOS>UNITY_ATOM_ATTR
20 1
charge -1
@<TRIPOS>BOND
     1    16    17    1
     2    17    18    1
     3    18    19    1
     4    19    20   ar
     5    19    21   ar
     6    17    10    1
     7    10    11   ar
     8    11    12   ar
     9    12    13   ar
    10    13    14   ar
    11    14     1    1
    12     1     2   ar
    13     2    22    1
    14    22    23   am
    15    22    24    2
    16     2     3   ar
    17     3     4   ar
    18     4     5   ar
    19     5     6   ar
    20     6     7   ar
    21     7    27    1
    22    27    28    1
    23    28    29    1
    24    28    30    1
    25    28    31    1
    26     7     8   ar
    27     8     9   ar
    28    14    15   ar
    29    15    10   ar
    30     9     1   ar
    31     9     4   ar
    32    23    25    1
    33    23    26    1
@<TRIPOS>MOLECULE
*****
 31 33 0 0 0
SMALL
GASTEIGER

@<TRIPOS>ATOM
      1 N          63.1914   84.2602   13.7717 N.ar    1  UNL1       -0.2876
      2 C          62.7225   83.1954   14.7185 C.ar    1  UNL1        0.1187
      3 C          62.6223   83.8028   16.0863 C.ar    1  UNL1        0.0236
      4 C          63.0292   85.2430   15.9849 C.ar    1  UNL1        0.0180
      5 C          63.1249   86.3335   17.0104 C.ar    1  UNL1        0.0046
      6 C          63.5723   87.7067   16.6053 C.ar    1  UNL1        0.0373
      7 C          63.9240   87.9894   15.1747 C.ar    1  UNL1        0.1483
      8 C          63.8283   86.8989   14.1493 C.ar    1  UNL1        0.0547
      9 C          63.3809   85.5257   14.5544 C.ar    1  UNL1        0.0685
     10 C          62.9972   84.8370    9.8500 C.ar    1  UNL1        0.0606
     11 C          63.9041   83.7481    9.3581 C.ar    1  UNL1        0.0148
     12 C          64.5733   82.8299   10.3374 C.ar    1  UNL1        0.0043
     13 C          64.3357   83.0007   11.8086 C.ar    1  UNL1        0.0374
     14 C          63.4290   84.0895   12.3005 C.ar    1  UNL1        0.1474
     15 N          62.7597   85.0077   11.3212 N.ar    1  UNL1       -0.2323
     16 C          62.0770   85.2976    7.4645 C.3     1  UNL1        0.0067
     17 C          62.3280   85.7552    8.8708 C.3     1  UNL1        0.0459
     18 C          61.9097   87.1309    9.2978 C.3     1  UNL1        0.0476
     19 C          60.5286   87.3618    9.8356 C.2     1  UNL1        0.0507
     20 O          60.3360   87.7179   11.2800 O.co2   1  UNL1       -0.5492
     21 O          59.3401   87.2366    8.9292 O.co2   1  UNL1       -0.5492
     22 C          62.4090   81.7729   14.3604 C.2     1  UNL1        0.2590
     23 N          60.9863   81.3504   14.1429 N.am    1  UNL1       -0.3241
     24 O          63.5181   80.7730   14.2196 O.2     1  UNL1       -0.2688
     25 H          60.2583   82.0067   14.2353 H       1  UNL1        0.1453
     26 H          60.7805   80.4168   13.9079 H       1  UNL1        0.1453
     27 O          64.3714   89.3627   14.7697 O.3     1  UNL1       -0.4044
     28 C          63.6144   90.1183   13.7180 C.3     1  UNL1        0.5753
     29 F          62.8575   90.8740   12.6663 F       1  UNL1       -0.1328
     30 F          64.8933   90.3626   12.9731 F       1  UNL1       -0.1328
     31 F          62.3356   89.8740   14.4629 F       1  UNL1       -0.1328
@<TRIPOS>UNITY_ATOM_ATTR
20 1
charge -1
@<TRIPOS>BOND
     1    16    17    1
     2    17    18    1
     3    18    19    1
     4    19    20   ar
     5    19    21   ar
     6    17    10    1
     7    10    11   ar
     8    11    12   ar
     9    12    13   ar
    10    13    14   ar
    11    14     1    1
    12     1     2   ar
    13     2    22    1
    14    22    23   am
    15    22    24    2
    16     2     3   ar
    17     3     4   ar
    18     4     5   ar
    19     5     6   ar
    20     6     7   ar
    21     7    27    1
    22    27    28    1
    23    28    29    1
    24    28    30    1
    25    28    31    1
    26     7     8   ar
    27     8     9   ar
    28    14    15   ar
    29    15    10   ar
    30     9     1   ar
    31     9     4   ar
    32    23    25    1
    33    23    26    1
@<TRIPOS>MOLECULE
*****
 31 33 0 0 0
SMALL
GASTEIGER

@<TRIPOS>ATOM
      1 N          62.4905   85.7436   10.7563 N.ar    1  UNL1       -0.2876
      2 C          62.5947   85.0027    9.4563 C.ar    1  UNL1        0.1187
      3 C          63.2230   83.6688    9.7321 C.ar    1  UNL1        0.0236
      4 C          63.5070   83.5854   11.2026 C.ar    1  UNL1        0.0180
      5 C          64.1194   82.5074   12.0470 C.ar    1  UNL1        0.0046
      6 C          64.2791   82.7118   13.5243 C.ar    1  UNL1        0.0373
      7 C          63.8263   83.9941   14.1574 C.ar    1  UNL1        0.1483
      8 C          63.2139   85.0720   13.3130 C.ar    1  UNL1        0.0547
      9 C          63.0543   84.8677   11.8356 C.ar    1  UNL1        0.0685
     10 C          62.2702   89.6598   11.3607 C.ar    1  UNL1        0.0606
     11 C          60.7856   89.8699   11.3198 C.ar    1  UNL1        0.0148
     12 C          59.8692   88.7045   11.0911 C.ar    1  UNL1        0.0043
     13 C          60.4376   87.3291   10.9032 C.ar    1  UNL1        0.0374
     14 C          61.9221   87.1190   10.9441 C.ar    1  UNL1        0.1474
     15 N          62.8385   88.2844   11.1729 N.ar    1  UNL1       -0.2323
     16 C          63.6461   91.6568   10.4289 C.3     1  UNL1        0.0067
     17 C          63.1866   90.8251   11.5895 C.3     1  UNL1        0.0459
     18 C          63.6434   91.1586   12.9787 C.3     1  UNL1        0.0476
     19 C          63.6047   90.1119   14.0525 C.2     1  UNL1        0.0507
     20 O          62.3291   89.8467   14.7958 O.co2   1  UNL1       -0.5492
     21 O          64.8416   89.3303   14.3829 O.co2   1  UNL1       -0.5492
     22 C          62.1490   85.5070    8.1158 C.2     1  UNL1        0.2590
     23 N          62.6805   84.8768    6.8627 N.am    1  UNL1       -0.3241
     24 O          61.1718   86.6416    8.0284 O.2     1  UNL1       -0.2688
     25 H          63.3219   84.1321    6.9200 H       1  UNL1        0.1453
     26 H          62.3879   85.2079    5.9829 H       1  UNL1        0.1453
     27 O          63.9860   84.1984   15.6348 O.3     1  UNL1       -0.4044
     28 C          63.6889   85.5369   16.2433 C.3     1  UNL1        0.5753
     29 F          63.3918   86.8754   16.8517 F       1  UNL1       -0.1328
     30 F          64.9937   86.0630   15.7230 F       1  UNL1       -0.1328
     31 F          62.3841   85.0108   16.7636 F       1  UNL1       -0.1328
@<TRIPOS>UNITY_ATOM_ATTR
20 1
charge -1
@<TRIPOS>BOND
     1    16    17    1
     2    17    18    1
     3    18    19    1
     4    19    20   ar
     5    19    21   ar
     6    17    10    1
     7    10    11   ar
     8    11    12   ar
     9    12    13   ar
    10    13    14   ar
    11    14     1    1
    12     1     2   ar
    13     2    22    1
    14    22    23   am
    15    22    24    2
    16     2     3   ar
    17     3     4   ar
    18     4     5   ar
    19     5     6   ar
    20     6     7   ar
    21     7    27    1
    22    27    28    1
    23    28    29    1
    24    28    30    1
    25    28    31    1
    26     7     8   ar
    27     8     9   ar
    28    14    15   ar
    29    15    10   ar
    30     9     1   ar
    31     9     4   ar
    32    23    25    1
    33    23    26    1
