@<TRIPOS>MOLECULE
*****
 34 38 0 0 0
SMALL
GASTEIGER

@<TRIPOS>ATOM
      1 C          63.3154   89.8422   13.0427 C.3     1  UNL1        0.1412
      2 N          64.2462   90.9820   12.7521 N.3     1  UNL1       -0.2630
      3 C          65.1235   91.4121   13.8903 C.3     1  UNL1        0.0742
      4 C          66.1480   92.5075   13.9192 C.3     1  UNL1        0.0347
      5 C          66.5480   93.4431   12.8173 C.3     1  UNL1        0.0735
      6 N          66.0226   93.5147   11.4141 N.3     1  UNL1       -0.2727
      7 C          64.9672   92.6681   10.7664 C.3     1  UNL1        0.0896
      8 C          64.1767   91.5409   11.3620 C.3     1  UNL1        0.0902
      9 C          66.6332   94.5726   10.5436 C.3     1  UNL1        0.0575
     10 C          66.5980   96.0719   10.5134 C.3     1  UNL1        0.0160
     11 C          67.4968   96.0688    9.3125 C.3     1  UNL1        0.0028
     12 C          67.5320   94.5695    9.3427 C.3     1  UNL1        0.0160
     13 C          60.7479   88.1413    9.7618 C.ar    1  UNL1        0.1057
     14 C          60.3018   89.3655   10.5048 C.ar    1  UNL1        0.0181
     15 C          61.1576   89.9325   11.5985 C.ar    1  UNL1       -0.0012
     16 C          62.4595   89.2752   11.9491 C.ar    1  UNL1       -0.0004
     17 C          62.9057   88.0509   11.2059 C.ar    1  UNL1       -0.0012
     18 C          62.0498   87.4840   10.1123 C.ar    1  UNL1        0.0181
     19 C          59.0361   87.0074    7.5744 C.3     1  UNL1        0.1816
     20 S          59.8920   87.5743    8.6681 S.O2    1  UNL1        0.0104
     21 O          59.4946   88.9619    8.2598 O.2     1  UNL1       -0.1686
     22 O          60.2894   86.1868    9.0764 O.2     1  UNL1       -0.1686
     23 C          63.2405   89.2693   14.4269 C.ar    1  UNL1        0.1798
     24 N          62.6482   89.9432   15.6292 N.ar    1  UNL1       -0.1110
     25 N          62.7864   89.0124   16.7973 N.ar    1  UNL1       -0.0229
     26 N          63.4640   87.7633   16.3171 N.ar    1  UNL1       -0.0428
     27 N          63.7447   87.9221   14.8521 N.ar    1  UNL1       -0.2108
     28 C          64.4123   86.9112   13.9677 C.3     1  UNL1        0.1570
     29 C          63.9099   85.4983   13.9314 C.ar    1  UNL1        0.0022
     30 C          64.1026   84.6030   15.1193 C.ar    1  UNL1       -0.0023
     31 C          63.6003   83.1901   15.0831 C.ar    1  UNL1       -0.0003
     32 C          62.9050   82.6725   13.8587 C.ar    1  UNL1       -0.0000
     33 C          62.7122   83.5678   12.6708 C.ar    1  UNL1       -0.0003
     34 C          63.2147   84.9808   12.7071 C.ar    1  UNL1       -0.0023
@<TRIPOS>BOND
     1    19    20    1
     2    20    21    2
     3    20    22    2
     4    20    13    1
     5    13    14   ar
     6    14    15   ar
     7    15    16   ar
     8    16     1    1
     9     1    23    1
    10    23    24   ar
    11    24    25   ar
    12    25    26   ar
    13    26    27   ar
    14    27    28    1
    15    28    29    1
    16    29    30   ar
    17    30    31   ar
    18    31    32   ar
    19    32    33   ar
    20    33    34   ar
    21     1     2    1
    22     2     3    1
    23     3     4    1
    24     4     5    1
    25     5     6    1
    26     6     9    1
    27     9    10    1
    28    10    11    1
    29    11    12    1
    30     6     7    1
    31     7     8    1
    32    16    17   ar
    33    17    18   ar
    34    18    13   ar
    35    27    23   ar
    36    34    29   ar
    37     8     2    1
    38    12     9    1
@<TRIPOS>MOLECULE
*****
 34 38 0 0 0
SMALL
GASTEIGER

@<TRIPOS>ATOM
      1 C          62.9479   88.7274   12.7564 C.3     1  UNL1        0.1412
      2 N          63.1954   87.2714   13.0186 N.3     1  UNL1       -0.2630
      3 C          64.1871   86.9646   14.1015 C.3     1  UNL1        0.0742
      4 C          64.6468   85.6253   14.5965 C.3     1  UNL1        0.0347
      5 C          64.2286   84.2622   14.1308 C.3     1  UNL1        0.0735
      6 N          63.2473   83.9016   13.0552 N.3     1  UNL1       -0.2727
      7 C          62.4418   84.8151   12.1795 C.3     1  UNL1        0.0896
      8 C          62.4188   86.3148   12.1633 C.3     1  UNL1        0.0902
      9 C          63.0446   82.4333   12.8247 C.3     1  UNL1        0.0575
     10 C          62.6908   81.2623   13.6928 C.3     1  UNL1        0.0160
     11 C          62.7580   80.3569   12.4988 C.3     1  UNL1        0.0028
     12 C          63.1118   81.5278   11.6307 C.3     1  UNL1        0.0160
     13 C          65.8964   91.8062   14.1975 C.ar    1  UNL1        0.1057
     14 C          65.2168   91.9814   12.8719 C.ar    1  UNL1        0.0181
     15 C          64.2339   90.9551   12.3915 C.ar    1  UNL1       -0.0012
     16 C          63.9307   89.7537   13.2368 C.ar    1  UNL1       -0.0004
     17 C          64.6103   89.5785   14.5625 C.ar    1  UNL1       -0.0012
     18 C          65.5932   90.6048   15.0429 C.ar    1  UNL1        0.0181
     19 C          67.8621   93.8589   15.1582 C.3     1  UNL1        0.1816
     20 S          66.8793   92.8326   14.6779 S.O2    1  UNL1        0.0104
     21 O          66.0861   93.9097   13.9991 O.2     1  UNL1       -0.1686
     22 O          67.6723   91.7554   15.3566 O.2     1  UNL1       -0.1686
     23 C          61.7174   89.1571   12.0140 C.ar    1  UNL1        0.1798
     24 N          60.5229   89.8423   12.6088 N.ar    1  UNL1       -0.1110
     25 N          59.5326   90.0857   11.5087 N.ar    1  UNL1       -0.0229
     26 N          60.1151   89.5510   10.2341 N.ar    1  UNL1       -0.0428
     27 N          61.4653   88.9771   10.5463 N.ar    1  UNL1       -0.2108
     28 C          62.3995   88.3358    9.5634 C.3     1  UNL1        0.1570
     29 C          61.9425   87.1602    8.7515 C.ar    1  UNL1        0.0022
     30 C          60.5141   87.0683    8.3029 C.ar    1  UNL1       -0.0023
     31 C          60.0570   85.8928    7.4910 C.ar    1  UNL1       -0.0003
     32 C          61.0285   84.8090    7.1277 C.ar    1  UNL1       -0.0000
     33 C          62.4569   84.9009    7.5763 C.ar    1  UNL1       -0.0003
     34 C          62.9139   86.0765    8.3883 C.ar    1  UNL1       -0.0023
@<TRIPOS>BOND
     1    19    20    1
     2    20    21    2
     3    20    22    2
     4    20    13    1
     5    13    14   ar
     6    14    15   ar
     7    15    16   ar
     8    16     1    1
     9     1    23    1
    10    23    24   ar
    11    24    25   ar
    12    25    26   ar
    13    26    27   ar
    14    27    28    1
    15    28    29    1
    16    29    30   ar
    17    30    31   ar
    18    31    32   ar
    19    32    33   ar
    20    33    34   ar
    21     1     2    1
    22     2     3    1
    23     3     4    1
    24     4     5    1
    25     5     6    1
    26     6     9    1
    27     9    10    1
    28    10    11    1
    29    11    12    1
    30     6     7    1
    31     7     8    1
    32    16    17   ar
    33    17    18   ar
    34    18    13   ar
    35    27    23   ar
    36    34    29   ar
    37     8     2    1
    38    12     9    1
@<TRIPOS>MOLECULE
*****
 34 38 0 0 0
SMALL
GASTEIGER

@<TRIPOS>ATOM
      1 C          63.3429   90.3911   12.8739 C.3     1  UNL1        0.1412
      2 N          62.4165   89.6055   11.9937 N.3     1  UNL1       -0.2630
      3 C          60.9526   89.7771   12.2723 C.3     1  UNL1        0.0742
      4 C          59.7871   89.1377   11.5773 C.3     1  UNL1        0.0347
      5 C          59.7977   88.1691   10.4321 C.3     1  UNL1        0.0735
      6 N          60.9763   87.6005    9.6990 N.3     1  UNL1       -0.2727
      7 C          62.4355   87.8601    9.9300 C.3     1  UNL1        0.0896
      8 C          63.0764   88.7525   10.9513 C.3     1  UNL1        0.0902
      9 C          60.6531   86.6461    8.5879 C.3     1  UNL1        0.0575
     10 C          61.4157   85.5952    7.8367 C.3     1  UNL1        0.0160
     11 C          60.1959   85.2962    7.0166 C.3     1  UNL1        0.0028
     12 C          59.4332   86.3470    7.7677 C.3     1  UNL1        0.0160
     13 C          65.8920   93.6547   11.1131 C.ar    1  UNL1        0.1057
     14 C          64.8837   92.9467   10.2576 C.ar    1  UNL1        0.0181
     15 C          64.0339   91.8588   10.8445 C.ar    1  UNL1       -0.0012
     16 C          64.1926   91.4789   12.2869 C.ar    1  UNL1       -0.0004
     17 C          65.2010   92.1870   13.1424 C.ar    1  UNL1       -0.0012
     18 C          66.0507   93.2749   12.5555 C.ar    1  UNL1        0.0181
     19 C          67.5915   95.8304    9.9391 C.3     1  UNL1        0.1816
     20 S          66.7418   94.7426   10.5261 S.O2    1  UNL1        0.0104
     21 O          67.8060   93.7364   10.2019 O.2     1  UNL1       -0.1686
     22 O          65.6776   95.7487   10.8503 O.2     1  UNL1       -0.1686
     23 C          63.4195   90.0887   14.3411 C.ar    1  UNL1        0.1798
     24 N          62.9822   90.9964   15.4524 N.ar    1  UNL1       -0.1110
     25 N          63.2393   90.2943   16.7527 N.ar    1  UNL1       -0.0229
     26 N          63.8354   88.9527   16.4451 N.ar    1  UNL1       -0.0428
     27 N          63.9468   88.8256   14.9546 N.ar    1  UNL1       -0.2108
     28 C          64.4901   87.6431   14.2087 C.3     1  UNL1        0.1570
     29 C          63.8351   86.3012   14.3508 C.ar    1  UNL1        0.0022
     30 C          63.3665   85.5626   13.1322 C.ar    1  UNL1       -0.0023
     31 C          62.7115   84.2207   13.2742 C.ar    1  UNL1       -0.0003
     32 C          62.5251   83.6173   14.6349 C.ar    1  UNL1       -0.0000
     33 C          62.9937   84.3559   15.8534 C.ar    1  UNL1       -0.0003
     34 C          63.6488   85.6979   15.7114 C.ar    1  UNL1       -0.0023
@<TRIPOS>BOND
     1    19    20    1
     2    20    21    2
     3    20    22    2
     4    20    13    1
     5    13    14   ar
     6    14    15   ar
     7    15    16   ar
     8    16     1    1
     9     1    23    1
    10    23    24   ar
    11    24    25   ar
    12    25    26   ar
    13    26    27   ar
    14    27    28    1
    15    28    29    1
    16    29    30   ar
    17    30    31   ar
    18    31    32   ar
    19    32    33   ar
    20    33    34   ar
    21     1     2    1
    22     2     3    1
    23     3     4    1
    24     4     5    1
    25     5     6    1
    26     6     9    1
    27     9    10    1
    28    10    11    1
    29    11    12    1
    30     6     7    1
    31     7     8    1
    32    16    17   ar
    33    17    18   ar
    34    18    13   ar
    35    27    23   ar
    36    34    29   ar
    37     8     2    1
    38    12     9    1
@<TRIPOS>MOLECULE
*****
 34 38 0 0 0
SMALL
GASTEIGER

@<TRIPOS>ATOM
      1 C          62.5091   89.3814   12.3476 C.3     1  UNL1        0.1412
      2 N          63.0473   88.0644   12.8229 N.3     1  UNL1       -0.2630
      3 C          63.9758   88.1272   13.9994 C.3     1  UNL1        0.0742
      4 C          64.6722   86.9998   14.7024 C.3     1  UNL1        0.0347
      5 C          64.6120   85.5314   14.4026 C.3     1  UNL1        0.0735
      6 N          63.8407   84.8275   13.3258 N.3     1  UNL1       -0.2727
      7 C          62.9390   85.4182   12.2828 C.3     1  UNL1        0.0896
      8 C          62.5859   86.8589   12.0590 C.3     1  UNL1        0.0902
      9 C          63.9909   83.3356   13.2869 C.3     1  UNL1        0.0575
     10 C          64.5394   82.3502   12.2978 C.3     1  UNL1        0.0160
     11 C          64.2034   81.2256   13.2318 C.3     1  UNL1        0.0028
     12 C          63.6549   82.2109   14.2209 C.3     1  UNL1        0.0160
     13 C          65.3355   92.7327   11.3327 C.ar    1  UNL1        0.1057
     14 C          64.4521   92.1490   10.2703 C.ar    1  UNL1        0.0181
     15 C          63.5100   91.0318   10.6085 C.ar    1  UNL1       -0.0012
     16 C          63.4512   90.4985   12.0093 C.ar    1  UNL1       -0.0004
     17 C          64.3347   91.0823   13.0718 C.ar    1  UNL1       -0.0012
     18 C          65.2768   92.1994   12.7334 C.ar    1  UNL1        0.0181
     19 C          67.2197   94.9670   10.6561 C.3     1  UNL1        0.1816
     20 S          66.2776   93.8499   10.9943 S.O2    1  UNL1        0.0104
     21 O          66.1196   94.4027   12.3798 O.2     1  UNL1       -0.1686
     22 O          66.4356   93.2971    9.6089 O.2     1  UNL1       -0.1686
     23 C          61.0289   89.5812   12.2107 C.ar    1  UNL1        0.1798
     24 N          60.0595   89.7899   13.3362 N.ar    1  UNL1       -0.1110
     25 N          58.6895   89.9451   12.7454 N.ar    1  UNL1       -0.0229
     26 N          58.8122   89.8324   11.2547 N.ar    1  UNL1       -0.0428
     27 N          60.2580   89.6076   10.9242 N.ar    1  UNL1       -0.2108
     28 C          60.8321   89.4387    9.5487 C.3     1  UNL1        0.1570
     29 C          60.7580   88.1063    8.8635 C.ar    1  UNL1        0.0022
     30 C          59.5212   87.7190    8.1084 C.ar    1  UNL1       -0.0023
     31 C          59.4471   86.3868    7.4232 C.ar    1  UNL1       -0.0003
     32 C          60.6100   85.4418    7.4931 C.ar    1  UNL1       -0.0000
     33 C          61.8468   85.8291    8.2482 C.ar    1  UNL1       -0.0003
     34 C          61.9209   87.1614    8.9335 C.ar    1  UNL1       -0.0023
@<TRIPOS>BOND
     1    19    20    1
     2    20    21    2
     3    20    22    2
     4    20    13    1
     5    13    14   ar
     6    14    15   ar
     7    15    16   ar
     8    16     1    1
     9     1    23    1
    10    23    24   ar
    11    24    25   ar
    12    25    26   ar
    13    26    27   ar
    14    27    28    1
    15    28    29    1
    16    29    30   ar
    17    30    31   ar
    18    31    32   ar
    19    32    33   ar
    20    33    34   ar
    21     1     2    1
    22     2     3    1
    23     3     4    1
    24     4     5    1
    25     5     6    1
    26     6     9    1
    27     9    10    1
    28    10    11    1
    29    11    12    1
    30     6     7    1
    31     7     8    1
    32    16    17   ar
    33    17    18   ar
    34    18    13   ar
    35    27    23   ar
    36    34    29   ar
    37     8     2    1
    38    12     9    1
@<TRIPOS>MOLECULE
*****
 34 38 0 0 0
SMALL
GASTEIGER

@<TRIPOS>ATOM
      1 C          62.7012   88.8466   12.5561 C.3     1  UNL1        0.1412
      2 N          63.7660   89.8718   12.8116 N.3     1  UNL1       -0.2630
      3 C          63.9570   90.8947   11.7312 C.3     1  UNL1        0.0742
      4 C          64.9282   92.0370   11.6860 C.3     1  UNL1        0.0347
      5 C          65.9480   92.4385   12.7099 C.3     1  UNL1        0.0735
      6 N          66.2488   91.7969   14.0320 N.3     1  UNL1       -0.2727
      7 C          65.6038   90.5953   14.6567 C.3     1  UNL1        0.0896
      8 C          64.4988   89.7386   14.1135 C.3     1  UNL1        0.0902
      9 C          67.3385   92.4422   14.8357 C.3     1  UNL1        0.0575
     10 C          67.4055   93.1486   16.1574 C.3     1  UNL1        0.0160
     11 C          68.8797   93.3548   15.9724 C.3     1  UNL1        0.0028
     12 C          68.8128   92.6485   14.6508 C.3     1  UNL1        0.0160
     13 C          63.6295   84.4699   13.0386 C.ar    1  UNL1        0.1057
     14 C          64.2312   85.4722   13.9784 C.ar    1  UNL1        0.0181
     15 C          63.9218   86.9312   13.8176 C.ar    1  UNL1       -0.0012
     16 C          63.0106   87.3877   12.7170 C.ar    1  UNL1       -0.0004
     17 C          62.4088   86.3853   11.7772 C.ar    1  UNL1       -0.0012
     18 C          62.7183   84.9265   11.9380 C.ar    1  UNL1        0.0181
     19 C          64.2484   81.5521   13.3602 C.3     1  UNL1        0.1816
     20 S          63.9389   83.0110   13.1995 S.O2    1  UNL1        0.0104
     21 O          64.3119   82.9302   11.7488 O.2     1  UNL1       -0.1686
     22 O          63.5660   83.0918   14.6501 O.2     1  UNL1       -0.1686
     23 C          61.3270   89.2803   12.1398 C.ar    1  UNL1        0.1798
     24 N          60.2250   89.7194   13.0580 N.ar    1  UNL1       -0.1110
     25 N          59.0304   90.0616   12.2179 N.ar    1  UNL1       -0.0229
     26 N          59.3940   89.8341   10.7805 N.ar    1  UNL1       -0.0428
     27 N          60.8133   89.3512   10.7323 N.ar    1  UNL1       -0.2108
     28 C          61.5838   89.0008    9.4939 C.3     1  UNL1        0.1570
     29 C          61.3037   87.7142    8.7753 C.ar    1  UNL1        0.0022
     30 C          62.3914   86.6943    8.6119 C.ar    1  UNL1       -0.0023
     31 C          62.1113   85.4078    7.8933 C.ar    1  UNL1       -0.0003
     32 C          60.7436   85.1413    7.3380 C.ar    1  UNL1       -0.0000
     33 C          59.6559   86.1612    7.5014 C.ar    1  UNL1       -0.0003
     34 C          59.9360   87.4478    8.2200 C.ar    1  UNL1       -0.0023
@<TRIPOS>BOND
     1    19    20    1
     2    20    21    2
     3    20    22    2
     4    20    13    1
     5    13    14   ar
     6    14    15   ar
     7    15    16   ar
     8    16     1    1
     9     1    23    1
    10    23    24   ar
    11    24    25   ar
    12    25    26   ar
    13    26    27   ar
    14    27    28    1
    15    28    29    1
    16    29    30   ar
    17    30    31   ar
    18    31    32   ar
    19    32    33   ar
    20    33    34   ar
    21     1     2    1
    22     2     3    1
    23     3     4    1
    24     4     5    1
    25     5     6    1
    26     6     9    1
    27     9    10    1
    28    10    11    1
    29    11    12    1
    30     6     7    1
    31     7     8    1
    32    16    17   ar
    33    17    18   ar
    34    18    13   ar
    35    27    23   ar
    36    34    29   ar
    37     8     2    1
    38    12     9    1
@<TRIPOS>MOLECULE
*****
 34 38 0 0 0
SMALL
GASTEIGER

@<TRIPOS>ATOM
      1 C          62.8201   89.7119   12.2944 C.3     1  UNL1        0.1412
      2 N          63.8348   90.8119   12.1916 N.3     1  UNL1       -0.2630
      3 C          64.6509   91.0618   13.4251 C.3     1  UNL1        0.0742
      4 C          65.7331   92.0780   13.6406 C.3     1  UNL1        0.0347
      5 C          66.2662   93.0952   12.6758 C.3     1  UNL1        0.0735
      6 N          65.8490   93.3476   11.2573 N.3     1  UNL1       -0.2727
      7 C          64.7955   92.6450   10.4532 C.3     1  UNL1        0.0896
      8 C          63.8992   91.5165   10.8691 C.3     1  UNL1        0.0902
      9 C          66.5821   94.4481   10.5492 C.3     1  UNL1        0.0575
     10 C          67.5869   94.5089    9.4370 C.3     1  UNL1        0.0160
     11 C          67.6190   96.0044    9.5478 C.3     1  UNL1        0.0028
     12 C          66.6143   95.9437   10.6600 C.3     1  UNL1        0.0160
     13 C          64.0034   85.7093   13.9762 C.ar    1  UNL1        0.1057
     14 C          63.2148   85.7842   12.7024 C.ar    1  UNL1        0.0181
     15 C          62.8204   87.1184   12.1418 C.ar    1  UNL1       -0.0012
     16 C          63.2145   88.3777   12.8550 C.ar    1  UNL1       -0.0004
     17 C          64.0031   88.3029   14.1288 C.ar    1  UNL1       -0.0012
     18 C          64.3975   86.9686   14.6894 C.ar    1  UNL1        0.0181
     19 C          64.7922   83.0408   15.0974 C.3     1  UNL1        0.1816
     20 S          64.3978   84.3750   14.5368 S.O2    1  UNL1        0.0104
     21 O          64.0957   84.8674   15.9211 O.2     1  UNL1       -0.1686
     22 O          64.6999   83.8827   13.1525 O.2     1  UNL1       -0.1686
     23 C          61.4110   89.9463   11.8367 C.ar    1  UNL1        0.1798
     24 N          60.2879   90.4782   12.6769 N.ar    1  UNL1       -0.1110
     25 N          59.0604   90.5505   11.8179 N.ar    1  UNL1       -0.0229
     26 N          59.4248   90.0634   10.4468 N.ar    1  UNL1       -0.0428
     27 N          60.8775   89.6899   10.4584 N.ar    1  UNL1       -0.2108
     28 C          61.6595   89.1542    9.2959 C.3     1  UNL1        0.1570
     29 C          61.2815   87.8399    8.6795 C.ar    1  UNL1        0.0022
     30 C          62.2597   86.7028    8.6791 C.ar    1  UNL1       -0.0023
     31 C          61.8818   85.3886    8.0628 C.ar    1  UNL1       -0.0003
     32 C          60.5255   85.2114    7.4469 C.ar    1  UNL1       -0.0000
     33 C          59.5473   86.3486    7.4474 C.ar    1  UNL1       -0.0003
     34 C          59.9253   87.6629    8.0637 C.ar    1  UNL1       -0.0023
@<TRIPOS>BOND
     1    19    20    1
     2    20    21    2
     3    20    22    2
     4    20    13    1
     5    13    14   ar
     6    14    15   ar
     7    15    16   ar
     8    16     1    1
     9     1    23    1
    10    23    24   ar
    11    24    25   ar
    12    25    26   ar
    13    26    27   ar
    14    27    28    1
    15    28    29    1
    16    29    30   ar
    17    30    31   ar
    18    31    32   ar
    19    32    33   ar
    20    33    34   ar
    21     1     2    1
    22     2     3    1
    23     3     4    1
    24     4     5    1
    25     5     6    1
    26     6     9    1
    27     9    10    1
    28    10    11    1
    29    11    12    1
    30     6     7    1
    31     7     8    1
    32    16    17   ar
    33    17    18   ar
    34    18    13   ar
    35    27    23   ar
    36    34    29   ar
    37     8     2    1
    38    12     9    1
