@<TRIPOS>MOLECULE
*****
 42 45 0 0 0
SMALL
GASTEIGER

@<TRIPOS>ATOM
      1 C          63.4082   83.9294   13.8222 C.ar    1  UNL1        0.0611
      2 C          62.8902   83.0100   14.8882 C.ar    1  UNL1        0.1037
      3 N          62.6427   83.8249   16.1230 N.ar    1  UNL1       -0.2269
      4 C          63.0079   85.2479   15.8202 C.ar    1  UNL1        0.1407
      5 N          62.9707   86.4932   16.6555 N.ar    1  UNL1       -0.3374
      6 C          63.4066   87.8031   16.0689 C.ar    1  UNL1        0.0735
      7 C          63.8797   87.8676   14.6469 C.ar    1  UNL1        0.0186
      8 C          63.9169   86.6224   13.8116 C.ar    1  UNL1        0.0047
      9 C          63.4810   85.3125   14.3982 C.ar    1  UNL1        0.0386
     10 H          62.6602   86.4508   17.5888 H       1  UNL1        0.1674
     11 C          64.3156   89.1776   14.0603 C.ar    1  UNL1        0.0207
     12 C          65.3945   89.9768   14.7289 C.ar    1  UNL1        0.0038
     13 C          65.8305   91.2868   14.1423 C.ar    1  UNL1        0.0276
     14 C          65.1874   91.7975   12.8870 C.ar    1  UNL1        0.1226
     15 N          64.1084   90.9982   12.2184 N.ar    1  UNL1       -0.2356
     16 C          63.6725   89.6883   12.8050 C.ar    1  UNL1        0.0996
     17 C          65.6232   93.1073   12.3004 C.1     1  UNL1       -0.0437
     18 C          66.0591   94.4172   11.7138 C.1     1  UNL1       -0.0670
     19 C          66.4950   95.7272   11.1272 C.3     1  UNL1        0.1502
     20 N          66.8781   95.8102    9.6793 N.3     1  UNL1       -0.2618
     21 C          66.2194   96.8191    8.7859 C.3     1  UNL1        0.0730
     22 C          66.0057   96.5088    7.3340 C.3     1  UNL1        0.0188
     23 C          67.9199   94.8843    9.1249 C.3     1  UNL1        0.0730
     24 C          67.6839   93.4030    9.1260 C.3     1  UNL1        0.0188
     25 C          63.7870   83.5350   12.4255 C.2     1  UNL1        0.2015
     26 O          64.7175   82.3807   12.1983 O.2     1  UNL1       -0.2864
     27 C          61.5565   86.0244   10.2859 C.ar    1  UNL1        0.0920
     28 C          62.1318   85.8148    8.9165 C.ar    1  UNL1        0.0204
     29 C          63.2588   84.8453    8.7168 C.ar    1  UNL1        0.0312
     30 C          63.8106   84.0854    9.8864 C.ar    1  UNL1        0.1454
     31 F          64.9376   83.1159    9.6867 F       1  UNL1       -0.2040
     32 C          63.2353   84.2949   11.2558 C.ar    1  UNL1        0.0951
     33 C          62.1083   85.2644   11.4554 C.ar    1  UNL1        0.1598
     34 F          61.5330   85.4740   12.8249 F       1  UNL1       -0.2026
     35 N          60.4295   86.9939   10.4856 N.pl3   1  UNL1       -0.2166
     36 H          59.8468   86.9155   11.2752 H       1  UNL1        0.1734
     37 S          60.1903   88.0829    9.4821 S.O2    1  UNL1        0.0540
     38 O          61.0814   89.0005   10.2656 O.2     1  UNL1       -0.1545
     39 O          59.2992   87.1652    8.6987 O.2     1  UNL1       -0.1545
     40 C          59.9511   89.1718    8.4787 C.3     1  UNL1        0.1724
     41 C          59.0816   89.9334    6.1518 C.3     1  UNL1        0.0019
     42 C          59.3887   88.8375    7.1288 C.3     1  UNL1        0.0273
@<TRIPOS>BOND
     1    41    42    1
     2    42    40    1
     3    40    37    1
     4    37    38    2
     5    37    39    2
     6    37    35    1
     7    35    27    1
     8    27    28   ar
     9    28    29   ar
    10    29    30   ar
    11    30    31    1
    12    30    32   ar
    13    32    25    1
    14    25    26    2
    15    25     1    1
    16     1     2   ar
    17     2     3   ar
    18     3     4   ar
    19     4     5   ar
    20     5     6   ar
    21     6     7   ar
    22     7    11    1
    23    11    12   ar
    24    12    13   ar
    25    13    14   ar
    26    14    17    1
    27    17    18    3
    28    18    19    1
    29    19    20    1
    30    20    21    1
    31    21    22    1
    32    20    23    1
    33    23    24    1
    34    14    15   ar
    35    15    16   ar
    36     7     8   ar
    37     8     9   ar
    38    32    33   ar
    39    33    34    1
    40    33    27   ar
    41     9     1   ar
    42     9     4    1
    43    16    11   ar
    44    35    36    1
    45     5    10    1
@<TRIPOS>MOLECULE
*****
 42 45 0 0 0
SMALL
GASTEIGER

@<TRIPOS>ATOM
      1 C          60.7918   92.2458    3.1733 C.ar    1  UNL1        0.0611
      2 C          59.7855   93.0375    2.3919 C.ar    1  UNL1        0.1037
      3 N          58.4360   92.8039    3.0036 N.ar    1  UNL1       -0.2269
      4 C          58.6082   91.8678    4.1630 C.ar    1  UNL1        0.1407
      5 N          57.6274   91.2850    5.1367 N.ar    1  UNL1       -0.3374
      6 C          58.1025   90.3573    6.2153 C.ar    1  UNL1        0.0735
      7 C          59.5586   90.0124    6.3202 C.ar    1  UNL1        0.0186
      8 C          60.5394   90.5952    5.3465 C.ar    1  UNL1        0.0047
      9 C          60.0643   91.5229    4.2679 C.ar    1  UNL1        0.0386
     10 H          56.6717   91.5114    5.0679 H       1  UNL1        0.1674
     11 C          60.0337   89.0846    7.3989 C.ar    1  UNL1        0.0207
     12 C          59.8329   87.6049    7.2576 C.ar    1  UNL1        0.0038
     13 C          60.3081   86.6771    8.3363 C.ar    1  UNL1        0.0276
     14 C          60.9840   87.2291    9.5563 C.ar    1  UNL1        0.1226
     15 N          61.1848   88.7089    9.6976 N.ar    1  UNL1       -0.2356
     16 C          60.7097   89.6366    8.6189 C.ar    1  UNL1        0.0996
     17 C          61.4592   86.3014   10.6349 C.1     1  UNL1       -0.0437
     18 C          61.9343   85.3737   11.7136 C.1     1  UNL1       -0.0670
     19 C          62.4095   84.4459   12.7923 C.3     1  UNL1        0.1502
     20 N          62.9837   83.1080   12.4316 N.3     1  UNL1       -0.2618
     21 C          64.2763   83.0259   11.6751 C.3     1  UNL1        0.0730
     22 C          64.2663   82.9799   10.1757 C.3     1  UNL1        0.0188
     23 C          62.2653   81.8521   12.8273 C.3     1  UNL1        0.0730
     24 C          61.8987   81.6184   14.2629 C.3     1  UNL1        0.0188
     25 C          62.2668   92.1872    2.9069 C.2     1  UNL1        0.2015
     26 O          63.1582   91.3735    3.7975 O.2     1  UNL1       -0.2864
     27 C          62.9327   93.4441   -0.7982 C.ar    1  UNL1        0.0920
     28 C          64.0179   94.4529   -0.5645 C.ar    1  UNL1        0.0204
     29 C          64.5194   94.7066    0.8262 C.ar    1  UNL1        0.0312
     30 C          63.9358   93.9514    1.9834 C.ar    1  UNL1        0.1454
     31 F          64.4372   94.2050    3.3741 F       1  UNL1       -0.2040
     32 C          62.8506   92.9425    1.7497 C.ar    1  UNL1        0.0951
     33 C          62.3491   92.6889    0.3590 C.ar    1  UNL1        0.1598
     34 F          61.2639   91.6800    0.1254 F       1  UNL1       -0.2026
     35 N          62.4313   93.1905   -2.1889 N.pl3   1  UNL1       -0.2166
     36 H          61.5563   92.7604   -2.3259 H       1  UNL1        0.1734
     37 S          63.2629   93.5920   -3.3709 S.O2    1  UNL1        0.0540
     38 O          62.4910   94.8736   -3.4786 O.2     1  UNL1       -0.1545
     39 O          64.0348   92.3104   -3.2632 O.2     1  UNL1       -0.1545
     40 C          64.0946   93.9935   -4.5529 C.3     1  UNL1        0.1724
     41 C          63.6359   93.3636   -7.0314 C.3     1  UNL1        0.0019
     42 C          64.2641   93.0493   -5.7061 C.3     1  UNL1        0.0273
@<TRIPOS>BOND
     1    41    42    1
     2    42    40    1
     3    40    37    1
     4    37    38    2
     5    37    39    2
     6    37    35    1
     7    35    27    1
     8    27    28   ar
     9    28    29   ar
    10    29    30   ar
    11    30    31    1
    12    30    32   ar
    13    32    25    1
    14    25    26    2
    15    25     1    1
    16     1     2   ar
    17     2     3   ar
    18     3     4   ar
    19     4     5   ar
    20     5     6   ar
    21     6     7   ar
    22     7    11    1
    23    11    12   ar
    24    12    13   ar
    25    13    14   ar
    26    14    17    1
    27    17    18    3
    28    18    19    1
    29    19    20    1
    30    20    21    1
    31    21    22    1
    32    20    23    1
    33    23    24    1
    34    14    15   ar
    35    15    16   ar
    36     7     8   ar
    37     8     9   ar
    38    32    33   ar
    39    33    34    1
    40    33    27   ar
    41     9     1   ar
    42     9     4    1
    43    16    11   ar
    44    35    36    1
    45     5    10    1
@<TRIPOS>MOLECULE
*****
 42 45 0 0 0
SMALL
GASTEIGER

@<TRIPOS>ATOM
      1 C          60.7720   92.1950    3.2345 C.ar    1  UNL1        0.0611
      2 C          59.7589   92.9737    2.4490 C.ar    1  UNL1        0.1037
      3 N          58.4120   92.7351    3.0645 N.ar    1  UNL1       -0.2269
      4 C          58.5927   91.8088    4.2305 C.ar    1  UNL1        0.1407
      5 N          57.6176   91.2262    5.2101 N.ar    1  UNL1       -0.3374
      6 C          58.1010   90.3099    6.2947 C.ar    1  UNL1        0.0735
      7 C          59.5597   89.9761    6.3998 C.ar    1  UNL1        0.0186
      8 C          60.5348   90.5587    5.4202 C.ar    1  UNL1        0.0047
      9 C          60.0513   91.4751    4.3356 C.ar    1  UNL1        0.0386
     10 H          56.6602   91.4453    5.1411 H       1  UNL1        0.1674
     11 C          60.0431   89.0597    7.4845 C.ar    1  UNL1        0.0207
     12 C          59.8285   87.5798    7.3670 C.ar    1  UNL1        0.0038
     13 C          60.3120   86.6634    8.4517 C.ar    1  UNL1        0.0276
     14 C          61.0100   87.2269    9.6539 C.ar    1  UNL1        0.1226
     15 N          61.2246   88.7069    9.7713 N.ar    1  UNL1       -0.2356
     16 C          60.7411   89.6232    8.6866 C.ar    1  UNL1        0.0996
     17 C          61.4934   86.3106   10.7386 C.1     1  UNL1       -0.0437
     18 C          61.9769   85.3943   11.8232 C.1     1  UNL1       -0.0670
     19 C          62.4604   84.4779   12.9080 C.3     1  UNL1        0.1502
     20 N          62.7549   83.0399   12.5990 N.3     1  UNL1       -0.2618
     21 C          62.7306   82.0170   13.6958 C.3     1  UNL1        0.0730
     22 C          61.5044   81.1811   13.9147 C.3     1  UNL1        0.0188
     23 C          63.0739   82.6249   11.1933 C.3     1  UNL1        0.0730
     24 C          64.4164   82.9416   10.6041 C.3     1  UNL1        0.0188
     25 C          62.2470   92.1450    2.9662 C.2     1  UNL1        0.2015
     26 O          63.1440   91.3355    3.8549 O.2     1  UNL1       -0.2864
     27 C          62.9285   93.3815   -0.7429 C.ar    1  UNL1        0.0920
     28 C          63.9808   94.4237   -0.5054 C.ar    1  UNL1        0.0204
     29 C          64.4552   94.7063    0.8893 C.ar    1  UNL1        0.0312
     30 C          63.8773   93.9468    2.0465 C.ar    1  UNL1        0.1454
     31 F          64.3517   94.2294    3.4411 F       1  UNL1       -0.2040
     32 C          62.8250   92.9046    1.8089 C.ar    1  UNL1        0.0951
     33 C          62.3506   92.6220    0.4143 C.ar    1  UNL1        0.1598
     34 F          61.2982   91.5797    0.1769 F       1  UNL1       -0.2026
     35 N          62.4541   93.0989   -2.1375 N.pl3   1  UNL1       -0.2166
     36 H          62.7382   92.2757   -2.5968 H       1  UNL1        0.1734
     37 S          61.5469   94.0705   -2.8325 S.O2    1  UNL1        0.0540
     38 O          62.3497   93.9202   -4.0906 O.2     1  UNL1       -0.1545
     39 O          60.7441   94.2207   -1.5744 O.2     1  UNL1       -0.1545
     40 C          60.6396   95.0420   -3.5273 C.3     1  UNL1        0.1724
     41 C          58.6007   93.5650   -4.1686 C.3     1  UNL1        0.0019
     42 C          59.1581   94.8075   -3.5399 C.3     1  UNL1        0.0273
@<TRIPOS>BOND
     1    41    42    1
     2    42    40    1
     3    40    37    1
     4    37    38    2
     5    37    39    2
     6    37    35    1
     7    35    27    1
     8    27    28   ar
     9    28    29   ar
    10    29    30   ar
    11    30    31    1
    12    30    32   ar
    13    32    25    1
    14    25    26    2
    15    25     1    1
    16     1     2   ar
    17     2     3   ar
    18     3     4   ar
    19     4     5   ar
    20     5     6   ar
    21     6     7   ar
    22     7    11    1
    23    11    12   ar
    24    12    13   ar
    25    13    14   ar
    26    14    17    1
    27    17    18    3
    28    18    19    1
    29    19    20    1
    30    20    21    1
    31    21    22    1
    32    20    23    1
    33    23    24    1
    34    14    15   ar
    35    15    16   ar
    36     7     8   ar
    37     8     9   ar
    38    32    33   ar
    39    33    34    1
    40    33    27   ar
    41     9     1   ar
    42     9     4    1
    43    16    11   ar
    44    35    36    1
    45     5    10    1
@<TRIPOS>MOLECULE
*****
 42 45 0 0 0
SMALL
GASTEIGER

@<TRIPOS>ATOM
      1 C          66.4397   92.4941   15.2223 C.ar    1  UNL1        0.0611
      2 C          66.0796   93.5748   16.1981 C.ar    1  UNL1        0.1037
      3 N          64.8511   93.1387   16.9402 N.ar    1  UNL1       -0.2269
      4 C          64.4520   91.7884   16.4230 C.ar    1  UNL1        0.1407
      5 N          63.3215   90.8702   16.7816 N.ar    1  UNL1       -0.3374
      6 C          63.1727   89.5536   16.0785 C.ar    1  UNL1        0.0735
      7 C          64.1545   89.1552   15.0168 C.ar    1  UNL1        0.0186
      8 C          65.2851   90.0734   14.6581 C.ar    1  UNL1        0.0047
      9 C          65.4338   91.3900   15.3612 C.ar    1  UNL1        0.0386
     10 H          62.6771   91.1317   17.4785 H       1  UNL1        0.1674
     11 C          64.0057   87.8386   14.3137 C.ar    1  UNL1        0.0207
     12 C          64.5387   86.5867   14.9451 C.ar    1  UNL1        0.0038
     13 C          64.3899   85.2700   14.2420 C.ar    1  UNL1        0.0276
     14 C          63.7081   85.2053   12.9074 C.ar    1  UNL1        0.1226
     15 N          63.1751   86.4572   12.2760 N.ar    1  UNL1       -0.2356
     16 C          63.3239   87.7738   12.9791 C.ar    1  UNL1        0.0996
     17 C          63.5593   83.8887   12.2043 C.1     1  UNL1       -0.0437
     18 C          63.4105   82.5721   11.5012 C.1     1  UNL1       -0.0670
     19 C          63.2616   81.2555   10.7980 C.3     1  UNL1        0.1502
     20 N          62.8453   80.0371   11.5675 N.3     1  UNL1       -0.2618
     21 C          62.6704   80.1132   13.0553 C.3     1  UNL1        0.0730
     22 C          61.2951   80.2217   13.6443 C.3     1  UNL1        0.0188
     23 C          62.6037   78.7426   10.8492 C.3     1  UNL1        0.0730
     24 C          62.9012   78.6315    9.3832 C.3     1  UNL1        0.0188
     25 C          67.6017   92.5139   14.2739 C.2     1  UNL1        0.2015
     26 O          68.9878   92.2452   14.7803 O.2     1  UNL1       -0.2864
     27 C          66.3632   94.2975   10.9519 C.ar    1  UNL1        0.0920
     28 C          66.9293   93.3795    9.9094 C.ar    1  UNL1        0.0204
     29 C          67.7196   92.1731   10.3217 C.ar    1  UNL1        0.0312
     30 C          67.9437   91.8845   11.7765 C.ar    1  UNL1        0.1454
     31 F          68.7340   90.6781   12.1887 F       1  UNL1       -0.2040
     32 C          67.3776   92.8024   12.8190 C.ar    1  UNL1        0.0951
     33 C          66.5873   94.0089   12.4067 C.ar    1  UNL1        0.1598
     34 F          66.0212   94.9268   13.4493 F       1  UNL1       -0.2026
     35 N          65.5729   95.5039   10.5397 N.pl3   1  UNL1       -0.2166
     36 H          64.8638   95.8522   11.1271 H       1  UNL1        0.1734
     37 S          65.8631   96.1797    9.2323 S.O2    1  UNL1        0.0540
     38 O          64.3931   96.3769    9.0080 O.2     1  UNL1       -0.1545
     39 O          67.3330   95.9825    9.4566 O.2     1  UNL1       -0.1545
     40 C          66.1533   96.8554    7.9250 C.3     1  UNL1        0.1724
     41 C          65.2709   96.8391    5.4814 C.3     1  UNL1        0.0019
     42 C          65.9135   96.1280    6.6353 C.3     1  UNL1        0.0273
@<TRIPOS>BOND
     1    41    42    1
     2    42    40    1
     3    40    37    1
     4    37    38    2
     5    37    39    2
     6    37    35    1
     7    35    27    1
     8    27    28   ar
     9    28    29   ar
    10    29    30   ar
    11    30    31    1
    12    30    32   ar
    13    32    25    1
    14    25    26    2
    15    25     1    1
    16     1     2   ar
    17     2     3   ar
    18     3     4   ar
    19     4     5   ar
    20     5     6   ar
    21     6     7   ar
    22     7    11    1
    23    11    12   ar
    24    12    13   ar
    25    13    14   ar
    26    14    17    1
    27    17    18    3
    28    18    19    1
    29    19    20    1
    30    20    21    1
    31    21    22    1
    32    20    23    1
    33    23    24    1
    34    14    15   ar
    35    15    16   ar
    36     7     8   ar
    37     8     9   ar
    38    32    33   ar
    39    33    34    1
    40    33    27   ar
    41     9     1   ar
    42     9     4    1
    43    16    11   ar
    44    35    36    1
    45     5    10    1
