@<TRIPOS>MOLECULE
*****
 37 39 0 0 0
SMALL
GASTEIGER

@<TRIPOS>ATOM
      1 C          63.8888   89.1589   14.6387 C.ar    1  UNL1        0.1341
      2 N          63.9035   87.7651   14.0845 N.ar    1  UNL1       -0.2284
      3 C          63.5410   86.6048   14.9632 C.ar    1  UNL1        0.1343
      4 C          63.1639   86.8382   16.3961 C.ar    1  UNL1        0.0368
      5 C          63.1492   88.2319   16.9503 C.ar    1  UNL1        0.0339
      6 C          63.5117   89.3923   16.0716 C.ar    1  UNL1        0.1578
      7 F          63.4970   90.7861   16.6259 F       1  UNL1       -0.2028
      8 C          63.0319   89.8205   13.0429 C.3     1  UNL1        0.0624
      9 C          64.2513   90.3193   13.7600 C.3     1  UNL1        0.2382
     10 C          65.3448   90.4152   14.7823 C.3     1  UNL1        0.1975
     11 O          66.3772   91.4982   14.6768 O.3     1  UNL1       -0.3357
     12 C          66.3162   92.4853   13.5490 C.3     1  UNL1        0.2740
     13 C          66.6786   93.6457   12.6703 C.3     1  UNL1        0.0512
     14 C          65.2227   92.3895   12.5268 C.2     1  UNL1        0.3218
     15 N          65.1617   93.3766   11.3990 N.pl3   1  UNL1       -0.2480
     16 N          64.1903   91.3065   12.6322 N.2     1  UNL1       -0.0676
     17 H          65.8393   94.0875   11.3298 H       1  UNL1        0.2882
     18 H          64.4440   93.3137   10.7280 H       1  UNL1        0.2882
     19 C          67.5356   92.9842   14.2662 C.3     1  UNL1        0.4305
     20 F          68.7550   93.4831   14.9833 F       1  UNL1       -0.1670
     21 F          68.2653   91.7255   13.9009 F       1  UNL1       -0.1670
     22 F          66.8059   94.2428   14.6314 F       1  UNL1       -0.1670
     23 N          63.5557   85.2110   14.4090 N.am    1  UNL1       -0.2645
     24 C          62.8088   84.8980   13.1464 C.2     1  UNL1        0.2691
     25 O          62.0472   85.9789   12.4380 O.2     1  UNL1       -0.2681
     26 H          64.0555   84.5016   14.8739 H       1  UNL1        0.1566
     27 C          62.8234   83.5043   12.5921 C.ar    1  UNL1        0.1453
     28 N          62.4630   82.3437   13.4714 N.ar    1  UNL1       -0.2384
     29 C          62.4777   80.9499   12.9171 C.ar    1  UNL1        0.1029
     30 C          62.8527   80.7167   11.4836 C.ar    1  UNL1        0.0914
     31 C          63.2130   81.8773   10.6043 C.ar    1  UNL1        0.0185
     32 C          63.1984   83.2711   11.1585 C.ar    1  UNL1        0.0797
     33 CL         63.5587   84.4317   10.2793 Cl      1  UNL1       -0.0805
     34 C          62.8673   79.3230   10.9294 C.3     1  UNL1        0.4200
     35 F          62.8819   77.9292   10.3751 F       1  UNL1       -0.1658
     36 F          62.5150   78.7810   12.2829 F       1  UNL1       -0.1658
     37 F          63.2195   79.8649    9.5758 F       1  UNL1       -0.1658
@<TRIPOS>BOND
     1     9     8    1
     2     9     1    1
     3     1     2   ar
     4     2     3   ar
     5     3    23    1
     6    23    24   am
     7    24    25    2
     8    24    27    1
     9    27    28   ar
    10    28    29   ar
    11    29    30   ar
    12    30    34    1
    13    34    35    1
    14    34    36    1
    15    34    37    1
    16    30    31   ar
    17    31    32   ar
    18    32    33    1
    19     3     4   ar
    20     4     5   ar
    21     5     6   ar
    22     6     7    1
    23     9    10    1
    24    10    11    1
    25    11    12    1
    26    12    13    1
    27    12    19    1
    28    19    20    1
    29    19    21    1
    30    19    22    1
    31    12    14    1
    32    14    15    1
    33    14    16    2
    34    16     9    1
    35     6     1   ar
    36    32    27   ar
    37    23    26    1
    38    15    17    1
    39    15    18    1
@<TRIPOS>MOLECULE
*****
 37 39 0 0 0
SMALL
GASTEIGER

@<TRIPOS>ATOM
      1 C          62.0111   86.8801   10.6377 C.ar    1  UNL1        0.1341
      2 N          62.9545   87.8599   11.2699 N.ar    1  UNL1       -0.2284
      3 C          62.5780   89.3087   11.3658 C.ar    1  UNL1        0.1343
      4 C          61.2579   89.7776   10.8295 C.ar    1  UNL1        0.0368
      5 C          60.3144   88.7978   10.1973 C.ar    1  UNL1        0.0339
      6 C          60.6910   87.3490   10.1014 C.ar    1  UNL1        0.1578
      7 F          59.7475   86.3691    9.4692 F       1  UNL1       -0.2028
      8 C          62.5260   85.8322    9.1029 C.3     1  UNL1        0.0624
      9 C          62.3876   85.4312   10.5417 C.3     1  UNL1        0.2382
     10 C          62.1185   85.5335   12.0138 C.3     1  UNL1        0.1975
     11 O          62.2739   84.3262   12.8903 O.3     1  UNL1       -0.3357
     12 C          62.6985   83.0166   12.2946 C.3     1  UNL1        0.2740
     13 C          63.0751   81.5678   12.1987 C.3     1  UNL1        0.0512
     14 C          62.9677   82.9144   10.8226 C.2     1  UNL1        0.3218
     15 N          63.3923   81.6048   10.2269 N.pl3   1  UNL1       -0.2480
     16 N          62.8122   84.1217    9.9461 N.2     1  UNL1       -0.0676
     17 H          63.4943   80.8124   10.8022 H       1  UNL1        0.2882
     18 H          63.5689   81.5377    9.2607 H       1  UNL1        0.2882
     19 C          62.5602   82.6157   13.7335 C.3     1  UNL1        0.4305
     20 F          62.4218   82.2147   15.1723 F       1  UNL1       -0.1670
     21 F          63.6100   83.6174   14.1136 F       1  UNL1       -0.1670
     22 F          61.5104   81.6140   13.3533 F       1  UNL1       -0.1670
     23 N          63.5215   90.2886   11.9980 N.am    1  UNL1       -0.2645
     24 C          64.2417   89.9270   13.2631 C.2     1  UNL1        0.2691
     25 O          64.0184   88.5855   13.8960 O.2     1  UNL1       -0.2681
     26 H          63.6680   91.1691   11.5826 H       1  UNL1        0.1566
     27 C          65.1852   90.9069   13.8953 C.ar    1  UNL1        0.1453
     28 N          66.3523   91.4348   13.1148 N.ar    1  UNL1       -0.2384
     29 C          67.2958   92.4147   13.7471 C.ar    1  UNL1        0.1029
     30 C          67.0721   92.8666   15.1598 C.ar    1  UNL1        0.0914
     31 C          65.9050   92.3387   15.9402 C.ar    1  UNL1        0.0185
     32 C          64.9615   91.3588   15.3080 C.ar    1  UNL1        0.0797
     33 CL         63.7944   90.8309   16.0885 Cl      1  UNL1       -0.0805
     34 C          68.0156   93.8465   15.7920 C.3     1  UNL1        0.4200
     35 F          68.9591   94.8264   16.4242 F       1  UNL1       -0.1658
     36 F          68.5141   92.7724   16.7127 F       1  UNL1       -0.1658
     37 F          67.5170   94.9206   14.8713 F       1  UNL1       -0.1658
@<TRIPOS>BOND
     1     9     8    1
     2     9     1    1
     3     1     2   ar
     4     2     3   ar
     5     3    23    1
     6    23    24   am
     7    24    25    2
     8    24    27    1
     9    27    28   ar
    10    28    29   ar
    11    29    30   ar
    12    30    34    1
    13    34    35    1
    14    34    36    1
    15    34    37    1
    16    30    31   ar
    17    31    32   ar
    18    32    33    1
    19     3     4   ar
    20     4     5   ar
    21     5     6   ar
    22     6     7    1
    23     9    10    1
    24    10    11    1
    25    11    12    1
    26    12    13    1
    27    12    19    1
    28    19    20    1
    29    19    21    1
    30    19    22    1
    31    12    14    1
    32    14    15    1
    33    14    16    2
    34    16     9    1
    35     6     1   ar
    36    32    27   ar
    37    23    26    1
    38    15    17    1
    39    15    18    1
@<TRIPOS>MOLECULE
*****
 37 39 0 0 0
SMALL
GASTEIGER

@<TRIPOS>ATOM
      1 C          64.0180   89.0129   14.9917 C.ar    1  UNL1        0.1341
      2 N          64.0013   87.6318   14.4068 N.ar    1  UNL1       -0.2284
      3 C          63.4851   86.4802   15.2175 C.ar    1  UNL1        0.1343
      4 C          62.9857   86.7097   16.6132 C.ar    1  UNL1        0.0368
      5 C          63.0024   88.0908   17.1981 C.ar    1  UNL1        0.0339
      6 C          63.5186   89.2424   16.3874 C.ar    1  UNL1        0.1578
      7 F          63.5353   90.6236   16.9723 F       1  UNL1       -0.2028
      8 C          65.3475   90.3395   15.4291 C.3     1  UNL1        0.0624
      9 C          64.5341   90.1646   14.1809 C.3     1  UNL1        0.2382
     10 C          63.5416   89.5898   13.2144 C.3     1  UNL1        0.1975
     11 O          63.3476   90.2274   11.8705 O.3     1  UNL1       -0.3357
     12 C          64.1462   91.4398   11.4933 C.3     1  UNL1        0.2740
     13 C          64.6623   92.5915   10.6827 C.3     1  UNL1        0.0512
     14 C          65.1388   92.0146   12.4599 C.2     1  UNL1        0.3218
     15 N          65.9374   93.2271   12.0827 N.pl3   1  UNL1       -0.2480
     16 N          65.3328   91.3771   13.8037 N.2     1  UNL1       -0.0676
     17 H          65.8101   93.6455   11.2007 H       1  UNL1        0.2882
     18 H          66.5889   93.6043   12.7171 H       1  UNL1        0.2882
     19 C          63.3328   91.2649   10.2451 C.3     1  UNL1        0.4305
     20 F          62.5195   91.0901    8.9969 F       1  UNL1       -0.1670
     21 F          63.6617   92.6696    9.8341 F       1  UNL1       -0.1670
     22 F          63.0041   89.8604   10.6562 F       1  UNL1       -0.1670
     23 N          63.4684   85.0990   14.6326 N.am    1  UNL1       -0.2645
     24 C          62.9414   84.8782   13.2456 C.2     1  UNL1        0.2691
     25 O          62.4311   86.0387   12.4437 O.2     1  UNL1       -0.2681
     26 H          63.8033   84.3374   15.1589 H       1  UNL1        0.1566
     27 C          62.9246   83.4971   12.6607 C.ar    1  UNL1        0.1453
     28 N          63.4074   83.2705   11.2587 N.ar    1  UNL1       -0.2384
     29 C          63.3906   81.8893   10.6738 C.ar    1  UNL1        0.1029
     30 C          62.8911   80.7348   11.4908 C.ar    1  UNL1        0.0914
     31 C          62.4083   80.9614   12.8928 C.ar    1  UNL1        0.0185
     32 C          62.4251   82.3425   13.4778 C.ar    1  UNL1        0.0797
     33 CL         61.9424   82.5692   14.8798 Cl      1  UNL1       -0.0805
     34 C          62.8743   79.3537   10.9059 C.3     1  UNL1        0.4200
     35 F          62.8576   77.9725   10.3210 F       1  UNL1       -0.1658
     36 F          63.1950   79.9219    9.5552 F       1  UNL1       -0.1658
     37 F          62.5537   78.7855   12.2566 F       1  UNL1       -0.1658
@<TRIPOS>BOND
     1     9     8    1
     2     9     1    1
     3     1     2   ar
     4     2     3   ar
     5     3    23    1
     6    23    24   am
     7    24    25    2
     8    24    27    1
     9    27    28   ar
    10    28    29   ar
    11    29    30   ar
    12    30    34    1
    13    34    35    1
    14    34    36    1
    15    34    37    1
    16    30    31   ar
    17    31    32   ar
    18    32    33    1
    19     3     4   ar
    20     4     5   ar
    21     5     6   ar
    22     6     7    1
    23     9    10    1
    24    10    11    1
    25    11    12    1
    26    12    13    1
    27    12    19    1
    28    19    20    1
    29    19    21    1
    30    19    22    1
    31    12    14    1
    32    14    15    1
    33    14    16    2
    34    16     9    1
    35     6     1   ar
    36    32    27   ar
    37    23    26    1
    38    15    17    1
    39    15    18    1
