@<TRIPOS>MOLECULE
*****
 36 39 0 0 0
SMALL
GASTEIGER

@<TRIPOS>ATOM
      1 N          62.9631   90.9265   11.7067 N.am    1  UNL1       -0.2438
      2 C          63.3917   91.6468   10.4628 C.3     1  UNL1        0.1009
      3 C          64.5703   92.5739   10.5013 C.3     1  UNL1        0.0662
      4 C          65.3202   92.7807   11.7837 C.3     1  UNL1        0.1600
      5 O          64.8916   92.0604   13.0278 O.3     1  UNL1       -0.4374
      6 C          63.7130   91.1333   12.9893 C.2     1  UNL1        0.4051
      7 O          63.2844   90.4130   14.2332 O.2     1  UNL1       -0.2262
      8 C          66.1039   93.6814   10.8756 C.ar    1  UNL1        0.0140
      9 C          66.0657   95.1672   11.0777 C.ar    1  UNL1        0.0014
     10 C          66.8494   96.0680   10.1696 C.ar    1  UNL1        0.0294
     11 C          67.6710   95.4828    9.0594 C.ar    1  UNL1        0.1401
     12 F          68.4547   96.3836    8.1513 F       1  UNL1       -0.2042
     13 C          67.7092   93.9970    8.8574 C.ar    1  UNL1        0.0294
     14 C          66.9256   93.0962    9.7655 C.ar    1  UNL1        0.0014
     15 C          60.3923   90.5571   11.6405 C.3     1  UNL1        0.0265
     16 C          61.7845   89.9995   11.6682 C.3     1  UNL1        0.1011
     17 C          61.9981   88.5148   11.6574 C.ar    1  UNL1       -0.0042
     18 C          61.0999   87.6337   10.8408 C.ar    1  UNL1       -0.0027
     19 C          61.3136   86.1491   10.8301 C.ar    1  UNL1       -0.0002
     20 C          62.4255   85.5455   11.6359 C.ar    1  UNL1        0.0014
     21 C          63.3238   86.4266   12.4525 C.ar    1  UNL1       -0.0002
     22 C          63.1101   87.9112   12.4633 C.ar    1  UNL1       -0.0027
     23 C          62.6392   84.0608   11.6251 C.ar    1  UNL1        0.0175
     24 C          63.3526   83.4141   10.4750 C.ar    1  UNL1        0.0064
     25 C          63.5663   81.9294   10.4643 C.ar    1  UNL1        0.0608
     26 C          63.0665   81.0914   11.6036 C.ar    1  UNL1        0.2610
     27 O          63.2802   79.6068   11.5929 O.2     1  UNL1       -0.2670
     28 N          62.3531   81.7382   12.7538 N.ar    1  UNL1       -0.2922
     29 C          61.8533   80.9003   13.8931 C.3     1  UNL1        0.1336
     30 C          62.1395   83.2229   12.7645 C.ar    1  UNL1        0.0783
     31 C          66.3424   93.3003   12.7509 C.3     1  UNL1        0.0714
     32 C          66.9953   92.3661   13.7259 C.3     1  UNL1        0.0922
     33 C          67.7420   91.7133   12.6006 C.3     1  UNL1        0.0294
     34 C          66.2487   93.0188   14.8513 C.3     1  UNL1        0.0294
     35 O          67.6484   91.4318   14.7010 O.3     1  UNL1       -0.3866
     36 H          68.2443   90.8325   14.2250 H       1  UNL1        0.2102
@<TRIPOS>BOND
     1    16    15    1
     2    16    17    1
     3    17    18   ar
     4    18    19   ar
     5    19    20   ar
     6    20    23    1
     7    23    24   ar
     8    24    25   ar
     9    25    26   ar
    10    26    27    2
    11    26    28   ar
    12    28    29    1
    13    28    30   ar
    14    20    21   ar
    15    21    22   ar
    16    16     1    1
    17     1     2    1
    18     2     3    1
    19     3     4    1
    20     4    31    1
    21    31    32    1
    22    32    33    1
    23    32    34    1
    24    32    35    1
    25     4     8    1
    26     8     9   ar
    27     9    10   ar
    28    10    11   ar
    29    11    12    1
    30    11    13   ar
    31    13    14   ar
    32     4     5    1
    33     5     6    1
    34     6     7    2
    35    22    17   ar
    36     6     1   am
    37    30    23   ar
    38    14     8   ar
    39    35    36    1
@<TRIPOS>MOLECULE
*****
 36 39 0 0 0
SMALL
GASTEIGER

@<TRIPOS>ATOM
      1 N          63.4063   90.5417   11.9011 N.am    1  UNL1       -0.2438
      2 C          64.1198   90.3419   13.2053 C.3     1  UNL1        0.1009
      3 C          65.3157   91.1822   13.5424 C.3     1  UNL1        0.0662
      4 C          65.7982   92.2223   12.5752 C.3     1  UNL1        0.1600
      5 O          65.0847   92.4221   11.2709 O.3     1  UNL1       -0.4374
      6 C          63.8888   91.5818   10.9339 C.2     1  UNL1        0.4051
      7 O          63.1753   91.7815    9.6297 O.2     1  UNL1       -0.2262
      8 C          66.8001   92.4059   13.6763 C.ar    1  UNL1        0.0140
      9 C          66.3867   93.0488   14.9669 C.ar    1  UNL1        0.0014
     10 C          67.3886   93.2324   16.0681 C.ar    1  UNL1        0.0294
     11 C          68.8039   92.7730   15.8786 C.ar    1  UNL1        0.1401
     12 F          69.8058   92.9566   16.9797 F       1  UNL1       -0.2042
     13 C          69.2173   92.1301   14.5880 C.ar    1  UNL1        0.0294
     14 C          68.2154   91.9465   13.4868 C.ar    1  UNL1        0.0014
     15 C          60.9110   90.3573   11.2015 C.3     1  UNL1        0.0265
     16 C          62.2103   89.7014   11.5641 C.3     1  UNL1        0.1011
     17 C          62.3137   88.2051   11.5897 C.ar    1  UNL1       -0.0042
     18 C          63.1813   87.5307   12.6106 C.ar    1  UNL1       -0.0027
     19 C          63.2847   86.0345   12.6361 C.ar    1  UNL1       -0.0002
     20 C          62.5204   85.2128   11.6408 C.ar    1  UNL1        0.0014
     21 C          61.6528   85.8873   10.6199 C.ar    1  UNL1       -0.0002
     22 C          61.5495   87.3834   10.5943 C.ar    1  UNL1       -0.0027
     23 C          62.6239   83.7165   11.6664 C.ar    1  UNL1        0.0175
     24 C          63.2267   82.9864   10.5030 C.ar    1  UNL1        0.0064
     25 C          63.3301   81.4901   10.5286 C.ar    1  UNL1        0.0608
     26 C          62.8306   80.7241   11.7176 C.ar    1  UNL1        0.2610
     27 O          62.9340   79.2279   11.7432 O.2     1  UNL1       -0.2670
     28 N          62.2278   81.4543   12.8810 N.ar    1  UNL1       -0.2922
     29 C          61.7284   80.6882   14.0700 C.3     1  UNL1        0.1336
     30 C          62.1244   82.9505   12.8554 C.ar    1  UNL1        0.0783
     31 C          66.6287   93.3261   11.9904 C.3     1  UNL1        0.0714
     32 C          66.5509   93.6263   10.5228 C.3     1  UNL1        0.0922
     33 C          65.7326   94.8488   10.8162 C.3     1  UNL1        0.0294
     34 C          67.3692   92.4039   10.2294 C.3     1  UNL1        0.0294
     35 O          66.4731   93.9266    9.0553 O.3     1  UNL1       -0.3866
     36 H          65.9574   94.7366    8.9179 H       1  UNL1        0.2102
@<TRIPOS>BOND
     1    16    15    1
     2    16    17    1
     3    17    18   ar
     4    18    19   ar
     5    19    20   ar
     6    20    23    1
     7    23    24   ar
     8    24    25   ar
     9    25    26   ar
    10    26    27    2
    11    26    28   ar
    12    28    29    1
    13    28    30   ar
    14    20    21   ar
    15    21    22   ar
    16    16     1    1
    17     1     2    1
    18     2     3    1
    19     3     4    1
    20     4    31    1
    21    31    32    1
    22    32    33    1
    23    32    34    1
    24    32    35    1
    25     4     8    1
    26     8     9   ar
    27     9    10   ar
    28    10    11   ar
    29    11    12    1
    30    11    13   ar
    31    13    14   ar
    32     4     5    1
    33     5     6    1
    34     6     7    2
    35    22    17   ar
    36     6     1   am
    37    30    23   ar
    38    14     8   ar
    39    35    36    1
@<TRIPOS>MOLECULE
*****
 36 39 0 0 0
SMALL
GASTEIGER

@<TRIPOS>ATOM
      1 N          63.0128   91.0540   11.5650 N.am    1  UNL1       -0.2438
      2 C          63.4276   91.8548   10.3665 C.3     1  UNL1        0.1009
      3 C          64.5794   92.8107   10.4651 C.3     1  UNL1        0.0662
      4 C          65.3163   92.9658   11.7623 C.3     1  UNL1        0.1600
      5 O          64.9015   92.1650   12.9610 O.3     1  UNL1       -0.4374
      6 C          63.7498   91.2091   12.8623 C.2     1  UNL1        0.4051
      7 O          63.3350   90.4083   14.0609 O.2     1  UNL1       -0.2262
      8 C          66.0791   93.9377   10.9116 C.ar    1  UNL1        0.0140
      9 C          66.9391   93.4376    9.7890 C.ar    1  UNL1        0.0014
     10 C          67.7019   94.4095    8.9382 C.ar    1  UNL1        0.0294
     11 C          67.6046   95.8814    9.2102 C.ar    1  UNL1        0.1401
     12 F          68.3674   96.8533    8.3595 F       1  UNL1       -0.2042
     13 C          66.7446   96.3815   10.3329 C.ar    1  UNL1        0.0294
     14 C          65.9818   95.4096   11.1836 C.ar    1  UNL1        0.0014
     15 C          60.5099   90.5929   11.0426 C.3     1  UNL1        0.0265
     16 C          61.8610   90.0982   11.4664 C.3     1  UNL1        0.1011
     17 C          62.0605   88.6474   11.7916 C.ar    1  UNL1       -0.0042
     18 C          63.2894   88.2063   12.5298 C.ar    1  UNL1       -0.0027
     19 C          63.4888   86.7557   12.8550 C.ar    1  UNL1       -0.0002
     20 C          62.4591   85.7461   12.4419 C.ar    1  UNL1        0.0014
     21 C          61.2302   86.1872   11.7037 C.ar    1  UNL1       -0.0002
     22 C          61.0308   87.6378   11.3785 C.ar    1  UNL1       -0.0027
     23 C          62.6585   84.2953   12.7671 C.ar    1  UNL1        0.0175
     24 C          62.4051   83.7970   14.1590 C.ar    1  UNL1        0.0064
     25 C          62.6045   82.3463   14.4842 C.ar    1  UNL1        0.0608
     26 C          63.0573   81.3939   13.4174 C.ar    1  UNL1        0.2610
     27 O          63.2568   79.9433   13.7425 O.2     1  UNL1       -0.2670
     28 N          63.3108   81.8923   12.0254 N.ar    1  UNL1       -0.2922
     29 C          63.7636   80.9400   10.9587 C.3     1  UNL1        0.1336
     30 C          63.1114   83.3430   11.7003 C.ar    1  UNL1        0.0783
     31 C          66.3182   93.4584   12.7641 C.3     1  UNL1        0.0714
     32 C          66.9952   92.4889   13.6868 C.3     1  UNL1        0.0922
     33 C          67.6728   91.8453   12.5135 C.3     1  UNL1        0.0294
     34 C          66.3177   93.1324   14.8602 C.3     1  UNL1        0.0294
     35 O          67.6723   91.5192   14.6095 O.3     1  UNL1       -0.3866
     36 H          68.2313   90.9179   14.0930 H       1  UNL1        0.2102
@<TRIPOS>BOND
     1    16    15    1
     2    16    17    1
     3    17    18   ar
     4    18    19   ar
     5    19    20   ar
     6    20    23    1
     7    23    24   ar
     8    24    25   ar
     9    25    26   ar
    10    26    27    2
    11    26    28   ar
    12    28    29    1
    13    28    30   ar
    14    20    21   ar
    15    21    22   ar
    16    16     1    1
    17     1     2    1
    18     2     3    1
    19     3     4    1
    20     4    31    1
    21    31    32    1
    22    32    33    1
    23    32    34    1
    24    32    35    1
    25     4     8    1
    26     8     9   ar
    27     9    10   ar
    28    10    11   ar
    29    11    12    1
    30    11    13   ar
    31    13    14   ar
    32     4     5    1
    33     5     6    1
    34     6     7    2
    35    22    17   ar
    36     6     1   am
    37    30    23   ar
    38    14     8   ar
    39    35    36    1
