@<TRIPOS>MOLECULE
*****
 38 42 0 0 0
SMALL
GASTEIGER

@<TRIPOS>ATOM
      1 C          60.5259   88.7368    9.7499 C.3     1  UNL1        0.1455
      2 C          59.7592   89.5011    8.7117 C.3     1  UNL1        0.1634
      3 O          59.3481   88.8278    7.4360 O.3     1  UNL1       -0.3507
      4 C          59.7038   87.3900    7.1984 C.3     1  UNL1        0.1598
      5 C          60.4706   86.6257    8.2365 C.3     1  UNL1        0.1093
      6 N          60.8817   87.2990    9.5123 N.3     1  UNL1       -0.1499
      7 C          60.9370   89.4101   11.0256 C.3     1  UNL1        0.1550
      8 C          59.5889   89.6653   11.6317 C.3     1  UNL1        0.0453
      9 C          60.8304   90.0909   12.3580 C.3     1  UNL1        0.0453
     10 O          62.4280   89.3888   10.8627 O.3     1  UNL1       -0.4403
     11 N          65.9796   91.9233   14.0585 N.3     1  UNL1       -0.2699
     12 C          65.8108   92.7958   12.8502 C.3     1  UNL1        0.0940
     13 C          64.8807   92.3802   11.7491 C.3     1  UNL1        0.1141
     14 N          64.1194   91.0922   11.8565 N.am    1  UNL1       -0.2432
     15 C          63.1893   90.6768   10.7554 C.2     1  UNL1        0.4048
     16 O          63.0205   91.5493    9.5469 O.2     1  UNL1       -0.2262
     17 C          64.2882   90.2197   13.0649 C.3     1  UNL1        0.1141
     18 C          65.2183   90.6353   14.1660 C.3     1  UNL1        0.0940
     19 C          65.7437   92.4730   16.0937 C.3     1  UNL1        0.0186
     20 C          66.9097   92.3387   15.1596 C.3     1  UNL1        0.0726
     21 C          68.0756   92.2044   14.2255 C.3     1  UNL1        0.0186
     22 C          67.8397   92.7542   16.2607 C.3     1  UNL1        0.1516
     23 O          68.8460   93.8408   16.0225 O.3     1  UNL1       -0.3806
     24 H          69.4948   93.5424   15.3660 H       1  UNL1        0.2105
     25 S          61.6485   86.5348   10.5505 S.O2    1  UNL1        0.0635
     26 O          60.7821   86.4223   11.5797 O.2     1  UNL1       -0.1528
     27 O          62.8319   86.4729    9.6308 O.2     1  UNL1       -0.1528
     28 C          62.4154   85.7705   11.5886 C.ar    1  UNL1        0.1223
     29 C          63.0788   86.4997   12.7191 C.ar    1  UNL1        0.0208
     30 C          63.8457   85.7353   13.7572 C.ar    1  UNL1        0.0128
     31 C          63.9492   84.2418   13.6649 C.ar    1  UNL1        0.0578
     32 CL         64.7161   83.4775   14.7029 Cl      1  UNL1       -0.0822
     33 C          63.2857   83.5126   12.5343 C.ar    1  UNL1        0.0128
     34 C          62.5188   84.2769   11.4962 C.ar    1  UNL1        0.0208
     35 C          60.8263   85.1880    7.9990 C.3     1  UNL1        0.0203
     36 C          61.5564   84.7926    6.7496 C.3     1  UNL1        0.0015
     37 C          62.8077   84.7881    5.9225 C.3     1  UNL1        0.0000
     38 C          61.5693   84.1124    5.4128 C.3     1  UNL1        0.0000
@<TRIPOS>BOND
     1    19    20    1
     2    20    21    1
     3    20    22    1
     4    22    23    1
     5    20    11    1
     6    11    12    1
     7    12    13    1
     8    13    14    1
     9    14    15   am
    10    15    16    2
    11    15    10    1
    12    10     7    1
    13     1     7    1
    14     1     2    1
    15     2     3    1
    16     3     4    1
    17     4     5    1
    18     5    35    1
    19    35    36    1
    20    36    37    1
    21    37    38    1
    22     5     6    1
    23     6    25    1
    24    25    26    2
    25    25    27    2
    26    25    28    1
    27    28    29   ar
    28    29    30   ar
    29    30    31   ar
    30    31    32    1
    31    31    33   ar
    32    33    34   ar
    33     7     8    1
    34     8     9    1
    35    14    17    1
    36    17    18    1
    37    18    11    1
    38     9     7    1
    39     6     1    1
    40    34    28   ar
    41    38    36    1
    42    23    24    1
@<TRIPOS>MOLECULE
*****
 38 42 0 0 0
SMALL
GASTEIGER

@<TRIPOS>ATOM
      1 C          63.3776   87.9225   13.2205 C.3     1  UNL1        0.1455
      2 C          64.1737   87.4548   14.4026 C.3     1  UNL1        0.1634
      3 O          64.4087   85.9888   14.6159 O.3     1  UNL1       -0.3507
      4 C          63.8475   84.9905   13.6471 C.3     1  UNL1        0.1598
      5 C          63.0514   85.4582   12.4651 C.3     1  UNL1        0.1093
      6 N          62.8164   86.9243   12.2517 N.3     1  UNL1       -0.1499
      7 C          63.1426   89.3886   13.0072 C.3     1  UNL1        0.1550
      8 C          61.6568   89.4457   13.2047 C.3     1  UNL1        0.0453
      9 C          62.4200   90.6977   12.8882 C.3     1  UNL1        0.0453
     10 O          64.5468   89.8407   12.7355 O.3     1  UNL1       -0.4403
     11 N          66.5246   94.5410   10.9340 N.3     1  UNL1       -0.2699
     12 C          66.5796   94.6131   12.4313 C.3     1  UNL1        0.0940
     13 C          66.0988   93.4559   13.2559 C.3     1  UNL1        0.1141
     14 N          65.5632   92.2269   12.5833 N.am    1  UNL1       -0.2432
     15 C          65.0825   91.0698   13.4081 C.2     1  UNL1        0.4048
     16 O          65.1375   91.1418   14.9054 O.2     1  UNL1       -0.2262
     17 C          65.5082   92.1548   11.0861 C.3     1  UNL1        0.1141
     18 C          65.9889   93.3120   10.2614 C.3     1  UNL1        0.0940
     19 C          66.2749   96.6460   11.0137 C.3     1  UNL1        0.0186
     20 C          67.0053   95.6981   10.1093 C.3     1  UNL1        0.0726
     21 C          67.7356   94.7501    9.2049 C.3     1  UNL1        0.0186
     22 C          67.4859   96.8551    9.2846 C.3     1  UNL1        0.1516
     23 O          67.8259   96.6548    7.8374 O.3     1  UNL1       -0.3806
     24 H          68.5977   96.0717    7.7643 H       1  UNL1        0.2105
     25 S          62.0203   87.3921   11.0697 S.O2    1  UNL1        0.0635
     26 O          62.9542   87.8347   10.2011 O.2     1  UNL1       -0.1528
     27 O          60.7521   87.0020   11.7695 O.2     1  UNL1       -0.1528
     28 C          61.2240   87.8599    9.8876 C.ar    1  UNL1        0.1223
     29 C          60.6202   86.8598    8.9468 C.ar    1  UNL1        0.0208
     30 C          59.8239   87.3278    7.7648 C.ar    1  UNL1        0.0128
     31 C          59.6315   88.7957    7.5236 C.ar    1  UNL1        0.0578
     32 CL         58.8353   89.2635    6.3417 Cl      1  UNL1       -0.0822
     33 C          60.2354   89.7957    8.4645 C.ar    1  UNL1        0.0128
     34 C          61.0316   89.3279    9.6465 C.ar    1  UNL1        0.0208
     35 C          62.4901   84.4600   11.4963 C.3     1  UNL1        0.0203
     36 C          63.3207   83.2895   11.0600 C.3     1  UNL1        0.0015
     37 C          64.5322   82.7437   10.3642 C.3     1  UNL1        0.0000
     38 C          63.5475   81.8080   11.0004 C.3     1  UNL1        0.0000
@<TRIPOS>BOND
     1    19    20    1
     2    20    21    1
     3    20    22    1
     4    22    23    1
     5    20    11    1
     6    11    12    1
     7    12    13    1
     8    13    14    1
     9    14    15   am
    10    15    16    2
    11    15    10    1
    12    10     7    1
    13     1     7    1
    14     1     2    1
    15     2     3    1
    16     3     4    1
    17     4     5    1
    18     5    35    1
    19    35    36    1
    20    36    37    1
    21    37    38    1
    22     5     6    1
    23     6    25    1
    24    25    26    2
    25    25    27    2
    26    25    28    1
    27    28    29   ar
    28    29    30   ar
    29    30    31   ar
    30    31    32    1
    31    31    33   ar
    32    33    34   ar
    33     7     8    1
    34     8     9    1
    35    14    17    1
    36    17    18    1
    37    18    11    1
    38     9     7    1
    39     6     1    1
    40    34    28   ar
    41    38    36    1
    42    23    24    1
@<TRIPOS>MOLECULE
*****
 38 42 0 0 0
SMALL
GASTEIGER

@<TRIPOS>ATOM
      1 C          63.2283   90.7593   11.5502 C.3     1  UNL1        0.1455
      2 C          63.4785   91.6619   10.3787 C.3     1  UNL1        0.1634
      3 O          64.6262   92.6273   10.4074 O.3     1  UNL1       -0.3507
      4 C          65.5236   92.6901   11.6077 C.3     1  UNL1        0.1598
      5 C          65.2734   91.7875   12.7792 C.3     1  UNL1        0.1093
      6 N          64.1257   90.8221   12.7506 N.3     1  UNL1       -0.1499
      7 C          62.0806   89.7939   11.5215 C.3     1  UNL1        0.1550
      8 C          60.9368   90.7532   11.3752 C.3     1  UNL1        0.0453
      9 C          60.6741   89.2780   11.4455 C.3     1  UNL1        0.0453
     10 O          62.8258   88.4992   11.6578 O.3     1  UNL1       -0.4403
     11 N          62.6476   83.1197   12.1859 N.3     1  UNL1       -0.2699
     12 C          62.3350   83.4070   10.7473 C.3     1  UNL1        0.0940
     13 C          62.3014   84.8238   10.2556 C.3     1  UNL1        0.1141
     14 N          62.5804   85.9531   11.2026 N.am    1  UNL1       -0.2432
     15 C          62.5468   87.3699   10.7109 C.2     1  UNL1        0.4048
     16 O          62.2342   87.6573    9.2722 O.2     1  UNL1       -0.2262
     17 C          62.8930   85.6658   12.6412 C.3     1  UNL1        0.1141
     18 C          62.9266   84.2490   13.1329 C.3     1  UNL1        0.0940
     19 C          62.3176   82.1725   14.0550 C.3     1  UNL1        0.0186
     20 C          62.6812   81.7029   12.6776 C.3     1  UNL1        0.0726
     21 C          63.0448   81.2334   11.3002 C.3     1  UNL1        0.0186
     22 C          62.7148   80.2863   13.1694 C.3     1  UNL1        0.1516
     23 O          63.3791   79.9608   14.4743 O.3     1  UNL1       -0.3806
     24 H          64.3315   80.1307   14.4035 H       1  UNL1        0.2105
     25 S          63.8754   89.9194   13.9221 S.O2    1  UNL1        0.0635
     26 O          64.4782   88.7617   13.5773 O.2     1  UNL1       -0.1528
     27 O          63.1225   91.0200   14.6092 O.2     1  UNL1       -0.1528
     28 C          63.6250   89.0168   15.0937 C.ar    1  UNL1        0.1223
     29 C          63.0582   89.5771   16.3644 C.ar    1  UNL1        0.0208
     30 C          62.8078   88.6744   17.5360 C.ar    1  UNL1        0.0128
     31 C          63.1243   87.2115   17.4369 C.ar    1  UNL1        0.0578
     32 CL         62.8739   86.3089   18.6084 Cl      1  UNL1       -0.0822
     33 C          63.6911   86.6513   16.1661 C.ar    1  UNL1        0.0128
     34 C          63.9415   87.5539   14.9945 C.ar    1  UNL1        0.0208
     35 C          66.1707   91.8502   13.9796 C.3     1  UNL1        0.0203
     36 C          67.6570   91.9454   13.8006 C.3     1  UNL1        0.0015
     37 C          69.0028   92.3653   14.3128 C.3     1  UNL1        0.0000
     38 C          68.8854   91.6901   12.9785 C.3     1  UNL1        0.0000
@<TRIPOS>BOND
     1    19    20    1
     2    20    21    1
     3    20    22    1
     4    22    23    1
     5    20    11    1
     6    11    12    1
     7    12    13    1
     8    13    14    1
     9    14    15   am
    10    15    16    2
    11    15    10    1
    12    10     7    1
    13     1     7    1
    14     1     2    1
    15     2     3    1
    16     3     4    1
    17     4     5    1
    18     5    35    1
    19    35    36    1
    20    36    37    1
    21    37    38    1
    22     5     6    1
    23     6    25    1
    24    25    26    2
    25    25    27    2
    26    25    28    1
    27    28    29   ar
    28    29    30   ar
    29    30    31   ar
    30    31    32    1
    31    31    33   ar
    32    33    34   ar
    33     7     8    1
    34     8     9    1
    35    14    17    1
    36    17    18    1
    37    18    11    1
    38     9     7    1
    39     6     1    1
    40    34    28   ar
    41    38    36    1
    42    23    24    1
@<TRIPOS>MOLECULE
*****
 38 42 0 0 0
SMALL
GASTEIGER

@<TRIPOS>ATOM
      1 C          60.7884   88.7822   10.0329 C.3     1  UNL1        0.1455
      2 C          60.0832   89.6264    9.0132 C.3     1  UNL1        0.1634
      3 O          59.6504   89.0232    7.7099 O.3     1  UNL1       -0.3507
      4 C          59.9230   87.5756    7.4262 C.3     1  UNL1        0.1598
      5 C          60.6283   86.7314    8.4459 C.3     1  UNL1        0.1093
      6 N          61.0610   87.3347    9.7493 N.3     1  UNL1       -0.1499
      7 C          61.2212   89.3855   11.3363 C.3     1  UNL1        0.1550
      8 C          59.8822   89.6399   11.9629 C.3     1  UNL1        0.0453
      9 C          61.1367   90.0044   12.7001 C.3     1  UNL1        0.0453
     10 O          62.7104   89.3405   11.1625 O.3     1  UNL1       -0.4403
     11 N          65.7680   93.7984   10.9951 N.3     1  UNL1       -0.2699
     12 C          65.9381   93.2289   12.3723 C.3     1  UNL1        0.0940
     13 C          65.2161   91.9719   12.7584 C.3     1  UNL1        0.1141
     14 N          64.3242   91.2847   11.7673 N.am    1  UNL1       -0.2432
     15 C          63.6023   90.0278   12.1535 C.2     1  UNL1        0.4048
     16 O          63.7723   89.4582   13.5307 O.2     1  UNL1       -0.2262
     17 C          64.1542   91.8543   10.3902 C.3     1  UNL1        0.1141
     18 C          64.8761   93.1113   10.0041 C.3     1  UNL1        0.0940
     19 C          66.1730   95.6491   11.9495 C.3     1  UNL1        0.0186
     20 C          66.4899   95.0554   10.6090 C.3     1  UNL1        0.0726
     21 C          66.8068   94.4615    9.2685 C.3     1  UNL1        0.0186
     22 C          67.2118   96.3122   10.2228 C.3     1  UNL1        0.1516
     23 O          67.8774   96.4132    8.8824 O.3     1  UNL1       -0.3806
     24 H          68.6137   95.7832    8.8387 H       1  UNL1        0.2105
     25 S          61.7663   86.4905   10.7691 S.O2    1  UNL1        0.0635
     26 O          60.8951   86.4254   11.7983 O.2     1  UNL1       -0.1528
     27 O          62.9399   86.3546    9.8448 O.2     1  UNL1       -0.1528
     28 C          62.4717   85.6463   11.7888 C.ar    1  UNL1        0.1223
     29 C          62.4923   84.1537   11.6421 C.ar    1  UNL1        0.0208
     30 C          63.1977   83.3096   12.6619 C.ar    1  UNL1        0.0128
     31 C          63.8825   83.9581   13.8283 C.ar    1  UNL1        0.0578
     32 CL         64.5879   83.1140   14.8480 Cl      1  UNL1       -0.0822
     33 C          63.8619   85.4508   13.9749 C.ar    1  UNL1        0.0128
     34 C          63.1565   86.2949   12.9552 C.ar    1  UNL1        0.0208
     35 C          60.9009   85.2840    8.1624 C.3     1  UNL1        0.0203
     36 C          61.6019   84.8867    6.8970 C.3     1  UNL1        0.0015
     37 C          61.5746   84.2337    5.5469 C.3     1  UNL1        0.0000
     38 C          62.8432   84.8517    6.0557 C.3     1  UNL1        0.0000
@<TRIPOS>BOND
     1    19    20    1
     2    20    21    1
     3    20    22    1
     4    22    23    1
     5    20    11    1
     6    11    12    1
     7    12    13    1
     8    13    14    1
     9    14    15   am
    10    15    16    2
    11    15    10    1
    12    10     7    1
    13     1     7    1
    14     1     2    1
    15     2     3    1
    16     3     4    1
    17     4     5    1
    18     5    35    1
    19    35    36    1
    20    36    37    1
    21    37    38    1
    22     5     6    1
    23     6    25    1
    24    25    26    2
    25    25    27    2
    26    25    28    1
    27    28    29   ar
    28    29    30   ar
    29    30    31   ar
    30    31    32    1
    31    31    33   ar
    32    33    34   ar
    33     7     8    1
    34     8     9    1
    35    14    17    1
    36    17    18    1
    37    18    11    1
    38     9     7    1
    39     6     1    1
    40    34    28   ar
    41    38    36    1
    42    23    24    1
@<TRIPOS>MOLECULE
*****
 38 42 0 0 0
SMALL
GASTEIGER

@<TRIPOS>ATOM
      1 C          64.7663   90.7544   14.8180 C.3     1  UNL1        0.1455
      2 C          65.8722   91.3911   15.6064 C.3     1  UNL1        0.1634
      3 O          66.8849   92.2551   14.9151 O.3     1  UNL1       -0.3507
      4 C          66.7918   92.4823   13.4353 C.3     1  UNL1        0.1598
      5 C          65.6859   91.8457   12.6469 C.3     1  UNL1        0.1093
      6 N          64.6732   90.9817   13.3382 N.3     1  UNL1       -0.1499
      7 C          63.7536   89.8904   15.5093 C.3     1  UNL1        0.1550
      8 C          62.8763   90.9480   16.1109 C.3     1  UNL1        0.0453
      9 C          62.5583   89.4979   16.3262 C.3     1  UNL1        0.0453
     10 O          64.2791   88.5328   15.1477 O.3     1  UNL1       -0.4403
     11 N          63.2503   83.4320   13.6737 N.3     1  UNL1       -0.2699
     12 C          62.9353   83.5134   15.1380 C.3     1  UNL1        0.0940
     13 C          63.1138   84.8091   15.8725 C.3     1  UNL1        0.1141
     14 N          63.6072   86.0231   15.1428 N.am    1  UNL1       -0.2432
     15 C          63.7857   87.3188   15.8774 C.2     1  UNL1        0.4048
     16 O          63.4706   87.4003   17.3417 O.2     1  UNL1       -0.2262
     17 C          63.9222   85.9417   13.6785 C.3     1  UNL1        0.1141
     18 C          63.7437   84.6460   12.9440 C.3     1  UNL1        0.0940
     19 C          64.0931   82.5685   11.9291 C.3     1  UNL1        0.0186
     20 C          63.0718   82.1364   12.9391 C.3     1  UNL1        0.0726
     21 C          62.0506   81.7043   13.9491 C.3     1  UNL1        0.0186
     22 C          62.8934   80.8408   12.2045 C.3     1  UNL1        0.1516
     23 O          62.3250   79.6480   12.9146 O.3     1  UNL1       -0.3806
     24 H          62.9414   79.3592   13.6057 H       1  UNL1        0.2105
     25 S          63.5673   90.3450   12.5498 S.O2    1  UNL1        0.0635
     26 O          63.9667   89.0639   12.4025 O.2     1  UNL1       -0.1528
     27 O          62.8340   91.6533   12.5218 O.2     1  UNL1       -0.1528
     28 C          62.4613   89.7083   11.7614 C.ar    1  UNL1        0.1223
     29 C          62.5553   88.2636   11.3691 C.ar    1  UNL1        0.0208
     30 C          61.4492   87.6271   10.5807 C.ar    1  UNL1        0.0128
     31 C          60.2492   88.4352   10.1847 C.ar    1  UNL1        0.0578
     32 CL         59.1432   87.7986    9.3963 Cl      1  UNL1       -0.0822
     33 C          60.1553   89.8799   10.5770 C.ar    1  UNL1        0.0128
     34 C          61.2613   90.5165   11.3654 C.ar    1  UNL1        0.0208
     35 C          65.5927   92.0729   11.1672 C.3     1  UNL1        0.0203
     36 C          66.8195   92.4408   10.3862 C.3     1  UNL1        0.0015
     37 C          67.6071   93.4491    9.6033 C.3     1  UNL1        0.0000
     38 C          68.1565   92.0697    9.8164 C.3     1  UNL1        0.0000
@<TRIPOS>BOND
     1    19    20    1
     2    20    21    1
     3    20    22    1
     4    22    23    1
     5    20    11    1
     6    11    12    1
     7    12    13    1
     8    13    14    1
     9    14    15   am
    10    15    16    2
    11    15    10    1
    12    10     7    1
    13     1     7    1
    14     1     2    1
    15     2     3    1
    16     3     4    1
    17     4     5    1
    18     5    35    1
    19    35    36    1
    20    36    37    1
    21    37    38    1
    22     5     6    1
    23     6    25    1
    24    25    26    2
    25    25    27    2
    26    25    28    1
    27    28    29   ar
    28    29    30   ar
    29    30    31   ar
    30    31    32    1
    31    31    33   ar
    32    33    34   ar
    33     7     8    1
    34     8     9    1
    35    14    17    1
    36    17    18    1
    37    18    11    1
    38     9     7    1
    39     6     1    1
    40    34    28   ar
    41    38    36    1
    42    23    24    1
@<TRIPOS>MOLECULE
*****
 38 42 0 0 0
SMALL
GASTEIGER

@<TRIPOS>ATOM
      1 C          62.2853   86.2583   10.5820 C.3     1  UNL1        0.1455
      2 C          62.3302   85.9985    9.1054 C.3     1  UNL1        0.1634
      3 O          63.0891   84.8187    8.5742 O.3     1  UNL1       -0.3507
      4 C          63.8029   83.8986    9.5197 C.3     1  UNL1        0.1598
      5 C          63.7579   84.1584   10.9963 C.3     1  UNL1        0.1093
      6 N          62.9991   85.3382   11.5275 N.3     1  UNL1       -0.1499
      7 C          61.5264   87.4381   11.1132 C.3     1  UNL1        0.1550
      8 C          60.1499   87.1072   10.6174 C.3     1  UNL1        0.0453
      9 C          60.3811   88.3607   11.4082 C.3     1  UNL1        0.0453
     10 O          62.6393   88.1788   11.7935 O.3     1  UNL1       -0.4403
     11 N          65.8127   92.0989   13.7460 N.3     1  UNL1       -0.2699
     12 C          65.3333   92.5794   12.4084 C.3     1  UNL1        0.0940
     13 C          64.4200   91.7194   11.5858 C.3     1  UNL1        0.1141
     14 N          63.9863   90.3791   12.1010 N.am    1  UNL1       -0.2432
     15 C          63.0731   89.5191   11.2784 C.2     1  UNL1        0.4048
     16 O          62.5936   89.9995    9.9407 O.2     1  UNL1       -0.2262
     17 C          64.4657   89.8986   13.4387 C.3     1  UNL1        0.1141
     18 C          65.3789   90.7586   14.2612 C.3     1  UNL1        0.0940
     19 C          66.5216   94.0935   13.6090 C.3     1  UNL1        0.0186
     20 C          66.7259   92.9589   14.5686 C.3     1  UNL1        0.0726
     21 C          66.9301   91.8242   15.5282 C.3     1  UNL1        0.0186
     22 C          67.6391   93.8188   15.3912 C.3     1  UNL1        0.1516
     23 O          69.0581   93.3939   15.6277 O.3     1  UNL1       -0.3806
     24 H          69.0685   92.5861   16.1647 H       1  UNL1        0.2105
     25 S          62.9541   85.5980   13.0042 S.O2    1  UNL1        0.0635
     26 O          64.0057   86.4154   13.2243 O.2     1  UNL1       -0.1528
     27 O          61.7385   84.7267   13.1204 O.2     1  UNL1       -0.1528
     28 C          62.9089   85.8578   14.4809 C.ar    1  UNL1        0.1223
     29 C          63.5132   87.1113   15.0407 C.ar    1  UNL1        0.0208
     30 C          63.4680   87.3710   16.5174 C.ar    1  UNL1        0.0128
     31 C          62.8185   86.3772   17.4342 C.ar    1  UNL1        0.0578
     32 CL         62.7734   86.6370   18.9108 Cl      1  UNL1       -0.0822
     33 C          62.2143   85.1237   16.8743 C.ar    1  UNL1        0.0128
     34 C          62.2594   84.8640   15.3976 C.ar    1  UNL1        0.0208
     35 C          64.4717   83.2384   11.9419 C.3     1  UNL1        0.0203
     36 C          63.7578   82.0495   12.5139 C.3     1  UNL1        0.0015
     37 C          63.3533   81.2234   13.6987 C.3     1  UNL1        0.0000
     38 C          62.9257   80.8167   12.3197 C.3     1  UNL1        0.0000
@<TRIPOS>BOND
     1    19    20    1
     2    20    21    1
     3    20    22    1
     4    22    23    1
     5    20    11    1
     6    11    12    1
     7    12    13    1
     8    13    14    1
     9    14    15   am
    10    15    16    2
    11    15    10    1
    12    10     7    1
    13     1     7    1
    14     1     2    1
    15     2     3    1
    16     3     4    1
    17     4     5    1
    18     5    35    1
    19    35    36    1
    20    36    37    1
    21    37    38    1
    22     5     6    1
    23     6    25    1
    24    25    26    2
    25    25    27    2
    26    25    28    1
    27    28    29   ar
    28    29    30   ar
    29    30    31   ar
    30    31    32    1
    31    31    33   ar
    32    33    34   ar
    33     7     8    1
    34     8     9    1
    35    14    17    1
    36    17    18    1
    37    18    11    1
    38     9     7    1
    39     6     1    1
    40    34    28   ar
    41    38    36    1
    42    23    24    1
@<TRIPOS>MOLECULE
*****
 38 42 0 0 0
SMALL
GASTEIGER

@<TRIPOS>ATOM
      1 C          63.5971   90.1846   13.2692 C.3     1  UNL1        0.1455
      2 C          62.4955   89.6133   12.4266 C.3     1  UNL1        0.1634
      3 O          62.3392   90.0497   11.0000 O.3     1  UNL1       -0.3507
      4 C          63.2845   91.0575   10.4161 C.3     1  UNL1        0.1598
      5 C          64.3861   91.6287   11.2588 C.3     1  UNL1        0.1093
      6 N          64.5424   91.1923   12.6853 N.3     1  UNL1       -0.1499
      7 C          63.7534   89.7481   14.6958 C.3     1  UNL1        0.1550
      8 C          63.3643   91.0143   15.3997 C.3     1  UNL1        0.0453
      9 C          63.7557   89.8040   16.1948 C.3     1  UNL1        0.0453
     10 O          64.1967   88.3304   14.4874 O.3     1  UNL1       -0.4403
     11 N          63.0708   83.1025   13.6802 N.3     1  UNL1       -0.2699
     12 C          62.7167   83.3884   15.1094 C.3     1  UNL1        0.0940
     13 C          62.9097   84.7669   15.6686 C.3     1  UNL1        0.1141
     14 N          63.4567   85.8594   14.7983 N.am    1  UNL1       -0.2432
     15 C          63.6497   87.2379   15.3575 C.2     1  UNL1        0.4048
     16 O          63.2956   87.5238   16.7869 O.2     1  UNL1       -0.2262
     17 C          63.8108   85.5735   13.3691 C.3     1  UNL1        0.1141
     18 C          63.6178   84.1950   12.8100 C.3     1  UNL1        0.0940
     19 C          61.9106   81.4120   14.2242 C.3     1  UNL1        0.0186
     20 C          62.8778   81.7240   13.1210 C.3     1  UNL1        0.0726
     21 C          63.8450   82.0361   12.0178 C.3     1  UNL1        0.0186
     22 C          62.6848   80.3456   12.5618 C.3     1  UNL1        0.1516
     23 O          62.8005   80.1125   11.0845 O.3     1  UNL1       -0.3806
     24 H          62.0814   80.5754   10.6269 H       1  UNL1        0.2105
     25 S          65.6440   91.7635   13.5281 S.O2    1  UNL1        0.0635
     26 O          66.3980   90.6913   13.8509 O.2     1  UNL1       -0.1528
     27 O          65.0553   93.1340   13.3686 O.2     1  UNL1       -0.1528
     28 C          66.7455   92.3349   14.3708 C.ar    1  UNL1        0.1223
     29 C          66.9659   93.8180   14.4123 C.ar    1  UNL1        0.0208
     30 C          68.0675   94.3893   15.2551 C.ar    1  UNL1        0.0128
     31 C          68.9486   93.4774   16.0564 C.ar    1  UNL1        0.0578
     32 CL         70.0502   94.0487   16.8991 Cl      1  UNL1       -0.0822
     33 C          68.7282   91.9943   16.0149 C.ar    1  UNL1        0.0128
     34 C          67.6266   91.4230   15.1721 C.ar    1  UNL1        0.0208
     35 C          65.3314   92.6364   10.6750 C.3     1  UNL1        0.0203
     36 C          66.7649   92.2672   10.4320 C.3     1  UNL1        0.0015
     37 C          67.8964   92.0075    9.4822 C.3     1  UNL1        0.0000
     38 C          68.1161   91.8874   10.9612 C.3     1  UNL1        0.0000
@<TRIPOS>BOND
     1    19    20    1
     2    20    21    1
     3    20    22    1
     4    22    23    1
     5    20    11    1
     6    11    12    1
     7    12    13    1
     8    13    14    1
     9    14    15   am
    10    15    16    2
    11    15    10    1
    12    10     7    1
    13     1     7    1
    14     1     2    1
    15     2     3    1
    16     3     4    1
    17     4     5    1
    18     5    35    1
    19    35    36    1
    20    36    37    1
    21    37    38    1
    22     5     6    1
    23     6    25    1
    24    25    26    2
    25    25    27    2
    26    25    28    1
    27    28    29   ar
    28    29    30   ar
    29    30    31   ar
    30    31    32    1
    31    31    33   ar
    32    33    34   ar
    33     7     8    1
    34     8     9    1
    35    14    17    1
    36    17    18    1
    37    18    11    1
    38     9     7    1
    39     6     1    1
    40    34    28   ar
    41    38    36    1
    42    23    24    1
@<TRIPOS>MOLECULE
*****
 38 42 0 0 0
SMALL
GASTEIGER

@<TRIPOS>ATOM
      1 C          63.5224   95.5353   -0.9336 C.3     1  UNL1        0.1455
      2 C          64.9712   95.9180   -0.9998 C.3     1  UNL1        0.1634
      3 O          65.6590   96.0239   -2.3286 O.3     1  UNL1       -0.3507
      4 C          64.8979   95.7471   -3.5912 C.3     1  UNL1        0.1598
      5 C          63.4491   95.3645   -3.5250 C.3     1  UNL1        0.1093
      6 N          62.7613   95.2586   -2.1963 N.3     1  UNL1       -0.1499
      7 C          62.8346   95.4295    0.3952 C.3     1  UNL1        0.1550
      8 C          62.9295   96.8551    0.8519 C.3     1  UNL1        0.0453
      9 C          62.2627   95.8314    1.7224 C.3     1  UNL1        0.0453
     10 O          62.5008   93.9671    0.4000 O.3     1  UNL1       -0.4403
     11 N          59.5655   91.5355    4.2368 N.3     1  UNL1       -0.2699
     12 C          60.9988   91.2215    4.5480 C.3     1  UNL1        0.0940
     13 C          62.0910   91.7510    3.6666 C.3     1  UNL1        0.1141
     14 N          61.7498   92.5943    2.4740 N.am    1  UNL1       -0.2432
     15 C          62.8420   93.1237    1.5926 C.2     1  UNL1        0.4048
     16 O          64.2754   92.8098    1.9038 O.2     1  UNL1       -0.2262
     17 C          60.3164   92.9083    2.1627 C.3     1  UNL1        0.1141
     18 C          59.2242   92.3788    3.0442 C.3     1  UNL1        0.0940
     19 C          59.4565   90.0922    5.7875 C.3     1  UNL1        0.0186
     20 C          58.4732   91.0061    5.1182 C.3     1  UNL1        0.0726
     21 C          57.4901   91.9200    4.4488 C.3     1  UNL1        0.0186
     22 C          57.3811   90.4767    5.9995 C.3     1  UNL1        0.1516
     23 O          55.9676   90.4344    5.4991 O.3     1  UNL1       -0.3806
     24 H          55.6445   91.3392    5.3660 H       1  UNL1        0.2105
     25 S          61.3125   94.8760   -2.1300 S.O2    1  UNL1        0.0635
     26 O          61.3271   93.5278   -2.1979 O.2     1  UNL1       -0.1528
     27 O          60.9343   96.3245   -2.0356 O.2     1  UNL1       -0.1528
     28 C          59.8635   94.4935   -2.0637 C.ar    1  UNL1        0.1223
     29 C          58.9814   95.0780   -1.0006 C.ar    1  UNL1        0.0208
     30 C          57.5325   94.6954   -0.9344 C.ar    1  UNL1        0.0128
     31 C          56.9657   93.7284   -1.9312 C.ar    1  UNL1        0.0578
     32 CL         55.5169   93.3459   -1.8649 Cl      1  UNL1       -0.0822
     33 C          57.8479   93.1439   -2.9942 C.ar    1  UNL1        0.0128
     34 C          59.2969   93.5264   -3.0605 C.ar    1  UNL1        0.0208
     35 C          62.6880   95.0877   -4.7876 C.3     1  UNL1        0.0203
     36 C          63.1752   94.0382   -5.7422 C.3     1  UNL1        0.0015
     37 C          63.8743   92.7352   -5.9942 C.3     1  UNL1        0.0000
     38 C          63.3199   93.5235   -7.1437 C.3     1  UNL1        0.0000
@<TRIPOS>BOND
     1    19    20    1
     2    20    21    1
     3    20    22    1
     4    22    23    1
     5    20    11    1
     6    11    12    1
     7    12    13    1
     8    13    14    1
     9    14    15   am
    10    15    16    2
    11    15    10    1
    12    10     7    1
    13     1     7    1
    14     1     2    1
    15     2     3    1
    16     3     4    1
    17     4     5    1
    18     5    35    1
    19    35    36    1
    20    36    37    1
    21    37    38    1
    22     5     6    1
    23     6    25    1
    24    25    26    2
    25    25    27    2
    26    25    28    1
    27    28    29   ar
    28    29    30   ar
    29    30    31   ar
    30    31    32    1
    31    31    33   ar
    32    33    34   ar
    33     7     8    1
    34     8     9    1
    35    14    17    1
    36    17    18    1
    37    18    11    1
    38     9     7    1
    39     6     1    1
    40    34    28   ar
    41    38    36    1
    42    23    24    1
