@<TRIPOS>MOLECULE
*****
 34 38 0 0 0
SMALL
GASTEIGER

@<TRIPOS>ATOM
      1 N          64.9557   91.7788   12.0810 N.ar    1  UNL1       -0.2299
      2 C          64.4065   90.5873   12.8080 C.ar    1  UNL1        0.2753
      3 O          63.5366   89.6026   12.0842 O.2     1  UNL1       -0.2656
      4 C          64.7270   90.3804   14.2586 C.ar    1  UNL1        0.0603
      5 C          65.5969   91.3650   14.9824 C.ar    1  UNL1        0.0454
      6 C          66.1462   92.5566   14.2554 C.ar    1  UNL1        0.1850
      7 N          67.0245   93.6876   14.7020 N.ar    1  UNL1       -0.1270
      8 N          67.2467   94.5935   13.5273 N.ar    1  UNL1       -0.1269
      9 C          66.5058   94.0224   12.3547 C.ar    1  UNL1        0.1878
     10 N          65.8256   92.7635   12.8048 N.ar    1  UNL1       -0.2084
     11 C          66.4541   94.6075   10.9745 C.ar    1  UNL1        0.0755
     12 C          65.7611   95.9170   10.7405 C.ar    1  UNL1        0.1439
     13 F          65.1197   96.6415   11.8868 F       1  UNL1       -0.2040
     14 C          65.7094   96.5022    9.3603 C.ar    1  UNL1        0.0298
     15 C          66.3507   95.7777    8.2141 C.ar    1  UNL1        0.0032
     16 C          67.0438   94.4681    8.4482 C.ar    1  UNL1        0.0116
     17 C          67.0955   93.8830    9.8283 C.ar    1  UNL1        0.0628
     18 CL         67.7885   92.5735   10.0623 Cl      1  UNL1       -0.0821
     19 C          64.1777   89.1887   14.9855 C.ar    1  UNL1        0.0009
     20 C          64.3370   87.8157   14.4029 C.ar    1  UNL1        0.0043
     21 C          63.7877   86.6242   15.1298 C.ar    1  UNL1        0.0533
     22 C          63.0791   86.8056   16.4394 C.ar    1  UNL1        0.0042
     23 C          62.9198   88.1786   17.0220 C.ar    1  UNL1       -0.0041
     24 C          63.4691   89.3702   16.2951 C.ar    1  UNL1       -0.0217
     25 C          63.3098   90.7433   16.8777 C.3     1  UNL1        0.0310
     26 C          63.9471   85.2511   14.5472 C.2     1  UNL1        0.2458
     27 O          65.3121   84.6406   14.4285 O.2     1  UNL1       -0.2701
     28 N          62.7415   84.4887   14.0833 N.am    1  UNL1       -0.3025
     29 H          61.8456   84.8894   14.1612 H       1  UNL1        0.1497
     30 C          62.9009   83.1157   13.5007 C.3     1  UNL1        0.0720
     31 C          62.6444   82.1363   12.3938 C.3     1  UNL1        0.0213
     32 C          63.4336   81.7169   13.5985 C.3     1  UNL1        0.0213
     33 C          63.2954   91.5782   10.0928 C.3     1  UNL1        0.0285
     34 C          64.6352   91.9857   10.6304 C.3     1  UNL1        0.1293
@<TRIPOS>BOND
     1    33    34    1
     2    34     1    1
     3     1     2   ar
     4     2     3    2
     5     2     4   ar
     6     4    19    1
     7    19    20   ar
     8    20    21   ar
     9    21    26    1
    10    26    27    2
    11    26    28   am
    12    28    30    1
    13    30    31    1
    14    31    32    1
    15    21    22   ar
    16    22    23   ar
    17    23    24   ar
    18    24    25    1
    19     4     5   ar
    20     5     6   ar
    21     6     7   ar
    22     7     8   ar
    23     8     9   ar
    24     9    11    1
    25    11    12   ar
    26    12    13    1
    27    12    14   ar
    28    14    15   ar
    29    15    16   ar
    30    16    17   ar
    31    17    18    1
    32     9    10   ar
    33    10     1   ar
    34    24    19   ar
    35    10     6   ar
    36    32    30    1
    37    17    11   ar
    38    28    29    1
@<TRIPOS>MOLECULE
*****
 34 38 0 0 0
SMALL
GASTEIGER

@<TRIPOS>ATOM
      1 N          63.9081   85.8582   13.5986 N.ar    1  UNL1       -0.2299
      2 C          64.3289   87.1712   14.1895 C.ar    1  UNL1        0.2753
      3 O          65.2553   87.2003   15.3690 O.2     1  UNL1       -0.2656
      4 C          63.8234   88.4548   13.6010 C.ar    1  UNL1        0.0603
      5 C          62.8970   88.4257   12.4215 C.ar    1  UNL1        0.0454
      6 C          62.4762   87.1128   11.8306 C.ar    1  UNL1        0.1850
      7 N          61.5803   86.7726   10.6767 N.ar    1  UNL1       -0.1270
      8 N          61.5322   85.2786   10.5521 N.ar    1  UNL1       -0.1269
      9 C          62.3983   84.6954   11.6290 C.ar    1  UNL1        0.1878
     10 N          62.9818   85.8290   12.4192 N.ar    1  UNL1       -0.2084
     11 C          62.6388   83.2350   11.8729 C.ar    1  UNL1        0.0755
     12 C          62.1158   82.5869   13.1205 C.ar    1  UNL1        0.1439
     13 F          61.3524   83.3992   14.1242 F       1  UNL1       -0.2040
     14 C          62.3562   81.1265   13.3644 C.ar    1  UNL1        0.0298
     15 C          63.1196   80.3143   12.3607 C.ar    1  UNL1        0.0032
     16 C          63.6425   80.9624   11.1131 C.ar    1  UNL1        0.0116
     17 C          63.4021   82.4227   10.8692 C.ar    1  UNL1        0.0628
     18 CL         63.9251   83.0708    9.6216 Cl      1  UNL1       -0.0821
     19 C          64.2442   89.7679   14.1919 C.ar    1  UNL1        0.0009
     20 C          65.0133   90.7520   13.3613 C.ar    1  UNL1        0.0043
     21 C          65.4341   92.0649   13.9522 C.ar    1  UNL1        0.0533
     22 C          65.0857   92.3937   15.3736 C.ar    1  UNL1        0.0042
     23 C          64.3166   91.4096   16.2042 C.ar    1  UNL1       -0.0041
     24 C          63.8958   90.0966   15.6133 C.ar    1  UNL1       -0.0217
     25 C          63.1266   89.1124   16.4439 C.3     1  UNL1        0.0310
     26 C          66.2033   93.0491   13.1216 C.2     1  UNL1        0.2458
     27 O          67.6078   93.4145   13.5009 O.2     1  UNL1       -0.2701
     28 N          65.5679   93.6678   11.9118 N.am    1  UNL1       -0.3025
     29 H          64.6461   93.4279   11.6629 H       1  UNL1        0.1497
     30 C          66.3371   94.6519   11.0813 C.3     1  UNL1        0.0720
     31 C          67.3159   94.9387    9.9813 C.3     1  UNL1        0.0213
     32 C          66.6907   96.0698   10.7428 C.3     1  UNL1        0.0213
     33 C          64.0209   84.1823   15.5807 C.3     1  UNL1        0.0285
     34 C          64.4137   84.5745   14.1872 C.3     1  UNL1        0.1293
@<TRIPOS>BOND
     1    33    34    1
     2    34     1    1
     3     1     2   ar
     4     2     3    2
     5     2     4   ar
     6     4    19    1
     7    19    20   ar
     8    20    21   ar
     9    21    26    1
    10    26    27    2
    11    26    28   am
    12    28    30    1
    13    30    31    1
    14    31    32    1
    15    21    22   ar
    16    22    23   ar
    17    23    24   ar
    18    24    25    1
    19     4     5   ar
    20     5     6   ar
    21     6     7   ar
    22     7     8   ar
    23     8     9   ar
    24     9    11    1
    25    11    12   ar
    26    12    13    1
    27    12    14   ar
    28    14    15   ar
    29    15    16   ar
    30    16    17   ar
    31    17    18    1
    32     9    10   ar
    33    10     1   ar
    34    24    19   ar
    35    10     6   ar
    36    32    30    1
    37    17    11   ar
    38    28    29    1
@<TRIPOS>MOLECULE
*****
 34 38 0 0 0
SMALL
GASTEIGER

@<TRIPOS>ATOM
      1 N          63.4895   85.4295   12.8586 N.ar    1  UNL1       -0.2299
      2 C          63.5331   86.8772   13.2490 C.ar    1  UNL1        0.2753
      3 O          63.1240   87.9322   12.2642 O.2     1  UNL1       -0.2656
      4 C          63.9857   87.2698   14.6240 C.ar    1  UNL1        0.0603
      5 C          64.3947   86.2149   15.6089 C.ar    1  UNL1        0.0454
      6 C          64.3511   84.7672   15.2185 C.ar    1  UNL1        0.1850
      7 N          64.6917   83.5144   15.9698 N.ar    1  UNL1       -0.1270
      8 N          64.4495   82.3475   15.0590 N.ar    1  UNL1       -0.1269
      9 C          63.9593   82.8790   13.7448 C.ar    1  UNL1        0.1878
     10 N          63.8985   84.3746   13.8433 N.ar    1  UNL1       -0.2084
     11 C          63.5941   82.0591   12.5430 C.ar    1  UNL1        0.0755
     12 C          64.2379   82.3422   11.2181 C.ar    1  UNL1        0.1439
     13 F          65.2469   83.4452   11.0950 F       1  UNL1       -0.2040
     14 C          63.8727   81.5222   10.0163 C.ar    1  UNL1        0.0298
     15 C          62.8637   80.4192   10.1394 C.ar    1  UNL1        0.0032
     16 C          62.2199   80.1361   11.4644 C.ar    1  UNL1        0.0116
     17 C          62.5851   80.9560   12.6662 C.ar    1  UNL1        0.0628
     18 CL         61.9413   80.6729   13.9911 Cl      1  UNL1       -0.0821
     19 C          64.0293   88.7176   15.0145 C.ar    1  UNL1        0.0009
     20 C          64.6641   89.7224   14.0993 C.ar    1  UNL1        0.0043
     21 C          64.7077   91.1700   14.4897 C.ar    1  UNL1        0.0533
     22 C          64.1164   91.6129   15.7952 C.ar    1  UNL1        0.0042
     23 C          63.4816   90.6081   16.7103 C.ar    1  UNL1       -0.0041
     24 C          63.4380   89.1604   16.3199 C.ar    1  UNL1       -0.0217
     25 C          62.8032   88.1556   17.2350 C.3     1  UNL1        0.0310
     26 C          65.3425   92.1748   13.5746 C.2     1  UNL1        0.2458
     27 O          66.1097   93.3302   14.1461 O.2     1  UNL1       -0.2701
     28 N          65.2101   92.0242   12.0880 N.am    1  UNL1       -0.3025
     29 H          64.7066   91.2659   11.7130 H       1  UNL1        0.1497
     30 C          65.8449   93.0291   11.1730 C.3     1  UNL1        0.0720
     31 C          66.0346   94.4518   10.7375 C.3     1  UNL1        0.0213
     32 C          66.7548   93.3465   10.0235 C.3     1  UNL1        0.0213
     33 C          61.6956   85.4811   10.9800 C.3     1  UNL1        0.0285
     34 C          63.0369   85.0369   11.4835 C.3     1  UNL1        0.1293
@<TRIPOS>BOND
     1    33    34    1
     2    34     1    1
     3     1     2   ar
     4     2     3    2
     5     2     4   ar
     6     4    19    1
     7    19    20   ar
     8    20    21   ar
     9    21    26    1
    10    26    27    2
    11    26    28   am
    12    28    30    1
    13    30    31    1
    14    31    32    1
    15    21    22   ar
    16    22    23   ar
    17    23    24   ar
    18    24    25    1
    19     4     5   ar
    20     5     6   ar
    21     6     7   ar
    22     7     8   ar
    23     8     9   ar
    24     9    11    1
    25    11    12   ar
    26    12    13    1
    27    12    14   ar
    28    14    15   ar
    29    15    16   ar
    30    16    17   ar
    31    17    18    1
    32     9    10   ar
    33    10     1   ar
    34    24    19   ar
    35    10     6   ar
    36    32    30    1
    37    17    11   ar
    38    28    29    1
@<TRIPOS>MOLECULE
*****
 34 38 0 0 0
SMALL
GASTEIGER

@<TRIPOS>ATOM
      1 N          63.5372   90.4126   11.9506 N.ar    1  UNL1       -0.2299
      2 C          62.6797   89.9116   10.8265 C.ar    1  UNL1        0.2753
      3 O          62.2714   90.8416    9.7226 O.2     1  UNL1       -0.2656
      4 C          62.2304   88.4806   10.8063 C.ar    1  UNL1        0.0603
      5 C          62.6387   87.5506   11.9102 C.ar    1  UNL1        0.0454
      6 C          63.4963   88.0517   13.0343 C.ar    1  UNL1        0.1850
      7 N          64.0525   87.3740   14.2513 N.ar    1  UNL1       -0.1270
      8 N          64.8456   88.3862   15.0237 N.ar    1  UNL1       -0.1269
      9 C          64.7795   89.6894   14.2840 C.ar    1  UNL1        0.1878
     10 N          63.9455   89.4827   13.0544 N.ar    1  UNL1       -0.2084
     11 C          65.4326   90.9739   14.7007 C.ar    1  UNL1        0.0755
     12 C          66.5695   91.5323   13.8972 C.ar    1  UNL1        0.1439
     13 F          67.0532   90.8063   12.6770 F       1  UNL1       -0.2040
     14 C          67.2227   92.8168   14.3139 C.ar    1  UNL1        0.0298
     15 C          66.7389   93.5427   15.5341 C.ar    1  UNL1        0.0032
     16 C          65.6020   92.9842   16.3376 C.ar    1  UNL1        0.0116
     17 C          64.9488   91.6999   15.9210 C.ar    1  UNL1        0.0628
     18 CL         63.8119   91.1414   16.7245 Cl      1  UNL1       -0.0821
     19 C          61.3728   87.9795    9.6822 C.ar    1  UNL1        0.0009
     20 C          60.6843   88.9534    8.7725 C.ar    1  UNL1        0.0043
     21 C          59.8268   88.4524    7.6485 C.ar    1  UNL1        0.0533
     22 C          59.6577   86.9774    7.4341 C.ar    1  UNL1        0.0042
     23 C          60.3462   86.0036    8.3438 C.ar    1  UNL1       -0.0041
     24 C          61.2037   86.5046    9.4679 C.ar    1  UNL1       -0.0217
     25 C          61.8923   85.5308   10.3776 C.3     1  UNL1        0.0310
     26 C          59.1383   89.4263    6.7387 C.2     1  UNL1        0.2458
     27 O          57.6432   89.4114    6.6178 O.2     1  UNL1       -0.2701
     28 N          59.9448   90.4149    5.9500 N.am    1  UNL1       -0.3025
     29 H          60.9261   90.4246    6.0294 H       1  UNL1        0.1497
     30 C          59.2563   91.3887    5.0403 C.3     1  UNL1        0.0720
     31 C          59.3221   92.4256    3.9584 C.3     1  UNL1        0.0213
     32 C          57.9977   92.0386    4.5468 C.3     1  UNL1        0.0213
     33 C          64.8719   92.3672   10.8790 C.3     1  UNL1        0.0285
     34 C          63.9865   91.8437   11.9707 C.3     1  UNL1        0.1293
@<TRIPOS>BOND
     1    33    34    1
     2    34     1    1
     3     1     2   ar
     4     2     3    2
     5     2     4   ar
     6     4    19    1
     7    19    20   ar
     8    20    21   ar
     9    21    26    1
    10    26    27    2
    11    26    28   am
    12    28    30    1
    13    30    31    1
    14    31    32    1
    15    21    22   ar
    16    22    23   ar
    17    23    24   ar
    18    24    25    1
    19     4     5   ar
    20     5     6   ar
    21     6     7   ar
    22     7     8   ar
    23     8     9   ar
    24     9    11    1
    25    11    12   ar
    26    12    13    1
    27    12    14   ar
    28    14    15   ar
    29    15    16   ar
    30    16    17   ar
    31    17    18    1
    32     9    10   ar
    33    10     1   ar
    34    24    19   ar
    35    10     6   ar
    36    32    30    1
    37    17    11   ar
    38    28    29    1
