@<TRIPOS>MOLECULE
*****
 28 31 0 0 0
SMALL
GASTEIGER

@<TRIPOS>ATOM
      1 O          61.6892   84.9689   10.6130 O.2     1  UNL1       -0.2522
      2 C          62.4320   85.6700   11.7116 C.2     1  UNL1        0.3078
      3 N          62.9728   84.8859   12.8703 N.am    1  UNL1       -0.2681
      4 N          62.6338   87.1552   11.6514 N.am    1  UNL1       -0.2611
      5 C          62.0929   87.9392   10.4927 C.3     1  UNL1        0.1123
      6 C          62.2948   89.4244   10.4326 C.3     1  UNL1        0.0940
      7 N          63.0375   90.1254   11.5311 N.3     1  UNL1       -0.2697
      8 C          63.5784   89.3413   12.6899 C.3     1  UNL1        0.0940
      9 C          63.3765   87.8562   12.7500 C.3     1  UNL1        0.1123
     10 H          63.4603   85.3461   13.5913 H       1  UNL1        0.1564
     11 C          62.7710   83.4007   12.9304 C.ar    1  UNL1        0.0525
     12 C          62.3171   82.7566   14.2068 C.ar    1  UNL1        0.0156
     13 C          62.1153   81.2715   14.2669 C.ar    1  UNL1        0.0135
     14 C          62.3674   80.4305   13.0507 C.ar    1  UNL1        0.0683
     15 CL         62.1655   78.9453   13.1108 Cl      1  UNL1       -0.0814
     16 C          62.8212   81.0746   11.7743 C.ar    1  UNL1        0.0694
     17 CL         63.0733   80.2336   10.5581 Cl      1  UNL1       -0.0813
     18 C          63.0231   82.5597   11.7142 C.ar    1  UNL1        0.0270
     19 C          63.2394   91.6106   11.4710 C.3     1  UNL1        0.0735
     20 C          64.6049   92.1914   11.6899 C.3     1  UNL1        0.0320
     21 C          65.4226   92.6474   10.5180 C.3     1  UNL1        0.0042
     22 C          66.7882   93.2282   10.7369 C.3     1  UNL1        0.0174
     23 C          67.3360   93.3530   12.1277 C.3     1  UNL1        0.0720
     24 N          66.5183   92.8970   13.2996 N.3     1  UNL1       -0.2739
     25 C          65.1527   92.3161   13.0807 C.3     1  UNL1        0.0734
     26 C          67.0660   93.0217   14.6904 C.3     1  UNL1        0.0576
     27 C          66.9438   92.7629   16.1628 C.3     1  UNL1        0.0173
     28 C          68.1372   93.4967   15.6269 C.3     1  UNL1        0.0173
@<TRIPOS>BOND
     1     1     2    2
     2     2     3   am
     3     3    11    1
     4    11    12   ar
     5    12    13   ar
     6    13    14   ar
     7    14    15    1
     8    14    16   ar
     9    16    17    1
    10    16    18   ar
    11     2     4   am
    12     4     5    1
    13     5     6    1
    14     6     7    1
    15     7    19    1
    16    20    19    1
    17    20    21    1
    18    21    22    1
    19    22    23    1
    20    23    24    1
    21    24    26    1
    22    26    27    1
    23    27    28    1
    24    24    25    1
    25     7     8    1
    26     8     9    1
    27    18    11   ar
    28     9     4    1
    29    25    20    1
    30    28    26    1
    31     3    10    1
@<TRIPOS>MOLECULE
*****
 28 31 0 0 0
SMALL
GASTEIGER

@<TRIPOS>ATOM
      1 O          64.1890   85.8107   15.0440 O.2     1  UNL1       -0.2522
      2 C          63.6945   86.4754   13.7936 C.2     1  UNL1        0.3078
      3 N          62.9415   85.6800   12.7688 N.am    1  UNL1       -0.2681
      4 N          63.9529   87.9357   13.5680 N.am    1  UNL1       -0.2611
      5 C          64.7059   88.7312   14.5928 C.3     1  UNL1        0.1123
      6 C          64.9643   90.1914   14.3672 C.3     1  UNL1        0.0940
      7 N          64.4698   90.8562   13.1168 N.3     1  UNL1       -0.2697
      8 C          63.7168   90.0607   12.0920 C.3     1  UNL1        0.0940
      9 C          63.4584   88.6005   12.3176 C.3     1  UNL1        0.1123
     10 H          62.6169   86.1163   11.9481 H       1  UNL1        0.1564
     11 C          62.6830   84.2197   12.9944 C.ar    1  UNL1        0.0525
     12 C          62.1703   83.7451   14.3217 C.ar    1  UNL1        0.0156
     13 C          61.9118   82.2849   14.5473 C.ar    1  UNL1        0.0135
     14 C          62.1662   81.2992   13.4455 C.ar    1  UNL1        0.0683
     15 CL         61.9077   79.8389   13.6711 Cl      1  UNL1       -0.0814
     16 C          62.6789   81.7739   12.1182 C.ar    1  UNL1        0.0694
     17 CL         62.9333   80.7882   11.0164 Cl      1  UNL1       -0.0813
     18 C          62.9374   83.2341   11.8927 C.ar    1  UNL1        0.0270
     19 C          64.7282   92.3165   12.8912 C.3     1  UNL1        0.0735
     20 C          65.7195   92.7510   11.8526 C.3     1  UNL1        0.0320
     21 C          66.9263   91.9069   11.5681 C.3     1  UNL1        0.0042
     22 C          67.9176   92.3414   10.5296 C.3     1  UNL1        0.0174
     23 C          67.7020   93.6201    9.7755 C.3     1  UNL1        0.0720
     24 N          66.4951   94.4642   10.0600 N.3     1  UNL1       -0.2739
     25 C          65.5038   94.0296   11.0986 C.3     1  UNL1        0.0734
     26 C          66.2794   95.7428    9.3060 C.3     1  UNL1        0.0576
     27 C          65.3692   96.8446    8.8505 C.3     1  UNL1        0.0173
     28 C          66.8162   96.8557    8.4555 C.3     1  UNL1        0.0173
@<TRIPOS>BOND
     1     1     2    2
     2     2     3   am
     3     3    11    1
     4    11    12   ar
     5    12    13   ar
     6    13    14   ar
     7    14    15    1
     8    14    16   ar
     9    16    17    1
    10    16    18   ar
    11     2     4   am
    12     4     5    1
    13     5     6    1
    14     6     7    1
    15     7    19    1
    16    20    19    1
    17    20    21    1
    18    21    22    1
    19    22    23    1
    20    23    24    1
    21    24    26    1
    22    26    27    1
    23    27    28    1
    24    24    25    1
    25     7     8    1
    26     8     9    1
    27    18    11   ar
    28     9     4    1
    29    25    20    1
    30    28    26    1
    31     3    10    1
@<TRIPOS>MOLECULE
*****
 28 31 0 0 0
SMALL
GASTEIGER

@<TRIPOS>ATOM
      1 O          62.2801   85.2297   10.8492 O.2     1  UNL1       -0.2522
      2 C          63.0453   85.3908   12.1293 C.2     1  UNL1        0.3078
      3 N          63.5956   84.1848   12.8310 N.am    1  UNL1       -0.2681
      4 N          63.2602   86.7582   12.7075 N.am    1  UNL1       -0.2611
      5 C          62.7099   87.9642   12.0057 C.3     1  UNL1        0.1123
      6 C          62.9248   89.3315   12.5840 C.3     1  UNL1        0.0940
      7 N          63.6899   89.4926   13.8641 N.3     1  UNL1       -0.2697
      8 C          64.2402   88.2866   14.5659 C.3     1  UNL1        0.0940
      9 C          64.0253   86.9193   13.9876 C.3     1  UNL1        0.1123
     10 H          64.0978   84.2906   13.6712 H       1  UNL1        0.1564
     11 C          63.3807   82.8175   12.2528 C.ar    1  UNL1        0.0525
     12 C          63.7235   82.5478   10.8176 C.ar    1  UNL1        0.0156
     13 C          63.5086   81.1805   10.2394 C.ar    1  UNL1        0.0135
     14 C          62.9510   80.0829   11.0964 C.ar    1  UNL1        0.0683
     15 CL         62.7361   78.7156   10.5181 Cl      1  UNL1       -0.0814
     16 C          62.6082   80.3526   12.5315 C.ar    1  UNL1        0.0694
     17 CL         62.0505   79.2550   13.3885 Cl      1  UNL1       -0.0813
     18 C          62.8231   81.7199   13.1097 C.ar    1  UNL1        0.0270
     19 C          63.9048   90.8600   14.4424 C.3     1  UNL1        0.0735
     20 C          65.1831   91.5964   14.1715 C.3     1  UNL1        0.0320
     21 C          65.9873   92.1474   15.3116 C.3     1  UNL1        0.0042
     22 C          67.2656   92.8839   15.0407 C.3     1  UNL1        0.0174
     23 C          67.7399   93.0694   13.6298 C.3     1  UNL1        0.0720
     24 N          66.9358   92.5184   12.4897 N.3     1  UNL1       -0.2739
     25 C          65.6573   91.7819   12.7606 C.3     1  UNL1        0.0734
     26 C          67.4100   92.7038   11.0788 C.3     1  UNL1        0.0576
     27 C          68.2391   92.2449    9.9161 C.3     1  UNL1        0.0173
     28 C          67.4021   93.4840    9.7977 C.3     1  UNL1        0.0173
@<TRIPOS>BOND
     1     1     2    2
     2     2     3   am
     3     3    11    1
     4    11    12   ar
     5    12    13   ar
     6    13    14   ar
     7    14    15    1
     8    14    16   ar
     9    16    17    1
    10    16    18   ar
    11     2     4   am
    12     4     5    1
    13     5     6    1
    14     6     7    1
    15     7    19    1
    16    20    19    1
    17    20    21    1
    18    21    22    1
    19    22    23    1
    20    23    24    1
    21    24    26    1
    22    26    27    1
    23    27    28    1
    24    24    25    1
    25     7     8    1
    26     8     9    1
    27    18    11   ar
    28     9     4    1
    29    25    20    1
    30    28    26    1
    31     3    10    1
@<TRIPOS>MOLECULE
*****
 28 31 0 0 0
SMALL
GASTEIGER

@<TRIPOS>ATOM
      1 O          64.2234   84.0010   13.9224 O.2     1  UNL1       -0.2522
      2 C          63.5352   84.8727   12.9140 C.2     1  UNL1        0.3078
      3 N          62.8498   84.2545   11.7317 N.am    1  UNL1       -0.2681
      4 N          63.5326   86.3626   13.0881 N.am    1  UNL1       -0.2611
      5 C          64.2181   86.9808   14.2704 C.3     1  UNL1        0.1123
      6 C          64.2154   88.4706   14.4444 C.3     1  UNL1        0.0940
      7 N          63.5273   89.3423   13.4361 N.3     1  UNL1       -0.2697
      8 C          62.8418   88.7241   12.2538 C.3     1  UNL1        0.0940
      9 C          62.8445   87.2342   12.0798 C.3     1  UNL1        0.1123
     10 H          62.3981   84.8266   11.0700 H       1  UNL1        0.1564
     11 C          62.8524   82.7646   11.5577 C.ar    1  UNL1        0.0525
     12 C          63.3116   82.1615   10.2634 C.ar    1  UNL1        0.0156
     13 C          63.3142   80.6717   10.0894 C.ar    1  UNL1        0.0135
     14 C          62.8576   79.7849   11.2097 C.ar    1  UNL1        0.0683
     15 CL         62.8603   78.2950   11.0356 Cl      1  UNL1       -0.0814
     16 C          62.3984   80.3880   12.5040 C.ar    1  UNL1        0.0694
     17 CL         61.9417   79.5012   13.6243 Cl      1  UNL1       -0.0813
     18 C          62.3958   81.8778   12.6780 C.ar    1  UNL1        0.0270
     19 C          63.5246   90.8322   13.6102 C.3     1  UNL1        0.0735
     20 C          64.7542   91.6274   13.2852 C.3     1  UNL1        0.0320
     21 C          64.9615   92.1539   11.8960 C.3     1  UNL1        0.0042
     22 C          66.1911   92.9492   11.5711 C.3     1  UNL1        0.0174
     23 C          67.2135   93.2179   12.6353 C.3     1  UNL1        0.0720
     24 N          67.0062   92.6914   14.0245 N.3     1  UNL1       -0.2739
     25 C          65.7766   91.8961   14.3494 C.3     1  UNL1        0.0734
     26 C          68.0286   92.9602   15.0887 C.3     1  UNL1        0.0576
     27 C          68.9646   92.4573   16.1474 C.3     1  UNL1        0.0173
     28 C          68.8632   93.9285   15.8733 C.3     1  UNL1        0.0173
@<TRIPOS>BOND
     1     1     2    2
     2     2     3   am
     3     3    11    1
     4    11    12   ar
     5    12    13   ar
     6    13    14   ar
     7    14    15    1
     8    14    16   ar
     9    16    17    1
    10    16    18   ar
    11     2     4   am
    12     4     5    1
    13     5     6    1
    14     6     7    1
    15     7    19    1
    16    20    19    1
    17    20    21    1
    18    21    22    1
    19    22    23    1
    20    23    24    1
    21    24    26    1
    22    26    27    1
    23    27    28    1
    24    24    25    1
    25     7     8    1
    26     8     9    1
    27    18    11   ar
    28     9     4    1
    29    25    20    1
    30    28    26    1
    31     3    10    1
@<TRIPOS>MOLECULE
*****
 28 31 0 0 0
SMALL
GASTEIGER

@<TRIPOS>ATOM
      1 O          64.1060   84.5739   14.5712 O.2     1  UNL1       -0.2522
      2 C          63.4386   85.2554   13.4135 C.2     1  UNL1        0.3078
      3 N          62.7105   84.4436   12.3836 N.am    1  UNL1       -0.2681
      4 N          63.4994   86.7488   13.2858 N.am    1  UNL1       -0.2611
      5 C          64.2275   87.5606   14.3157 C.3     1  UNL1        0.1123
      6 C          64.2883   89.0539   14.1879 C.3     1  UNL1        0.0940
      7 N          63.6209   89.7353   13.0302 N.3     1  UNL1       -0.2697
      8 C          62.8928   88.9235   12.0003 C.3     1  UNL1        0.0940
      9 C          62.8321   87.4302   12.1281 C.3     1  UNL1        0.1123
     10 H          62.2725   84.8909   11.6238 H       1  UNL1        0.1564
     11 C          62.6497   82.9502   12.5113 C.ar    1  UNL1        0.0525
     12 C          62.3466   82.3228   13.8396 C.ar    1  UNL1        0.0156
     13 C          62.2859   80.8295   13.9673 C.ar    1  UNL1        0.0135
     14 C          62.5282   79.9637   12.7667 C.ar    1  UNL1        0.0683
     15 CL         62.4674   78.4703   12.8944 Cl      1  UNL1       -0.0814
     16 C          62.8312   80.5910   11.4384 C.ar    1  UNL1        0.0694
     17 CL         63.0735   79.7252   10.2377 Cl      1  UNL1       -0.0813
     18 C          62.8920   82.0843   11.3107 C.ar    1  UNL1        0.0270
     19 C          63.6817   91.2287   12.9025 C.3     1  UNL1        0.0735
     20 C          65.0097   91.9204   12.8139 C.3     1  UNL1        0.0320
     21 C          65.7396   92.3061   14.0663 C.3     1  UNL1        0.0042
     22 C          67.0676   92.9978   13.9777 C.3     1  UNL1        0.0174
     23 C          67.6658   93.3039   12.6366 C.3     1  UNL1        0.0720
     24 N          66.9360   92.9182   11.3842 N.3     1  UNL1       -0.2739
     25 C          65.6079   92.2265   11.4728 C.3     1  UNL1        0.0734
     26 C          67.5341   93.2243   10.0431 C.3     1  UNL1        0.0576
     27 C          67.7111   94.1572    8.8820 C.3     1  UNL1        0.0173
     28 C          68.3932   92.8213    8.8814 C.3     1  UNL1        0.0173
@<TRIPOS>BOND
     1     1     2    2
     2     2     3   am
     3     3    11    1
     4    11    12   ar
     5    12    13   ar
     6    13    14   ar
     7    14    15    1
     8    14    16   ar
     9    16    17    1
    10    16    18   ar
    11     2     4   am
    12     4     5    1
    13     5     6    1
    14     6     7    1
    15     7    19    1
    16    20    19    1
    17    20    21    1
    18    21    22    1
    19    22    23    1
    20    23    24    1
    21    24    26    1
    22    26    27    1
    23    27    28    1
    24    24    25    1
    25     7     8    1
    26     8     9    1
    27    18    11   ar
    28     9     4    1
    29    25    20    1
    30    28    26    1
    31     3    10    1
@<TRIPOS>MOLECULE
*****
 28 31 0 0 0
SMALL
GASTEIGER

@<TRIPOS>ATOM
      1 O          63.9128   91.6182   15.4993 O.2     1  UNL1       -0.2522
      2 C          64.4024   90.4816   14.6517 C.2     1  UNL1        0.3078
      3 N          65.2447   90.7570   13.4415 N.am    1  UNL1       -0.2681
      4 N          64.0497   89.0694   15.0144 N.am    1  UNL1       -0.2611
      5 C          63.2075   88.7939   16.2247 C.3     1  UNL1        0.1123
      6 C          62.8548   87.3818   16.5873 C.3     1  UNL1        0.0940
      7 N          63.3445   86.2452   15.7398 N.3     1  UNL1       -0.2697
      8 C          64.1867   86.5207   14.5295 C.3     1  UNL1        0.0940
      9 C          64.5393   87.9328   14.1669 C.3     1  UNL1        0.1123
     10 H          65.5660   90.0110   12.8852 H       1  UNL1        0.1564
     11 C          65.5973   92.1692   13.0788 C.ar    1  UNL1        0.0525
     12 C          66.2432   93.0652   14.0936 C.ar    1  UNL1        0.0156
     13 C          66.5958   94.4773   13.7309 C.ar    1  UNL1        0.0135
     14 C          66.3026   94.9934   12.3533 C.ar    1  UNL1        0.0683
     15 CL         66.6553   96.4055   11.9906 Cl      1  UNL1       -0.0814
     16 C          65.6568   94.0973   11.3385 C.ar    1  UNL1        0.0694
     17 CL         65.3635   94.6134    9.9609 Cl      1  UNL1       -0.0813
     18 C          65.3041   92.6852   11.7012 C.ar    1  UNL1        0.0270
     19 C          62.9918   84.8330   16.1025 C.3     1  UNL1        0.0735
     20 C          62.7422   83.8215   15.0234 C.3     1  UNL1        0.0320
     21 C          61.9715   82.5719   15.3305 C.3     1  UNL1        0.0042
     22 C          61.7219   81.5603   14.2514 C.3     1  UNL1        0.0174
     23 C          62.2430   81.7985   12.8651 C.3     1  UNL1        0.0720
     24 N          63.0138   83.0481   12.5580 N.3     1  UNL1       -0.2739
     25 C          63.2634   84.0597   13.6372 C.3     1  UNL1        0.0734
     26 C          63.5349   83.2863   11.1718 C.3     1  UNL1        0.0576
     27 C          63.4681   84.0247    9.8679 C.3     1  UNL1        0.0173
     28 C          64.5045   82.9603   10.0747 C.3     1  UNL1        0.0173
@<TRIPOS>BOND
     1     1     2    2
     2     2     3   am
     3     3    11    1
     4    11    12   ar
     5    12    13   ar
     6    13    14   ar
     7    14    15    1
     8    14    16   ar
     9    16    17    1
    10    16    18   ar
    11     2     4   am
    12     4     5    1
    13     5     6    1
    14     6     7    1
    15     7    19    1
    16    20    19    1
    17    20    21    1
    18    21    22    1
    19    22    23    1
    20    23    24    1
    21    24    26    1
    22    26    27    1
    23    27    28    1
    24    24    25    1
    25     7     8    1
    26     8     9    1
    27    18    11   ar
    28     9     4    1
    29    25    20    1
    30    28    26    1
    31     3    10    1
@<TRIPOS>MOLECULE
*****
 28 31 0 0 0
SMALL
GASTEIGER

@<TRIPOS>ATOM
      1 O          55.7345   93.4942   -3.2807 O.2     1  UNL1       -0.2522
      2 C          56.1855   94.6217   -2.4001 C.2     1  UNL1        0.3078
      3 N          55.3237   95.8388   -2.2395 N.am    1  UNL1       -0.2681
      4 N          57.4984   94.5319   -1.6801 N.am    1  UNL1       -0.2611
      5 C          58.3602   93.3148   -1.8407 C.3     1  UNL1        0.1123
      6 C          59.6730   93.2251   -1.1207 C.3     1  UNL1        0.0940
      7 N          60.1240   94.3526   -0.2401 N.3     1  UNL1       -0.2697
      8 C          59.2622   95.5697   -0.0795 C.3     1  UNL1        0.0940
      9 C          57.9494   95.6594   -0.7995 C.3     1  UNL1        0.1123
     10 H          55.6197   96.5788   -1.6616 H       1  UNL1        0.1564
     11 C          54.0108   95.9285   -2.9596 C.ar    1  UNL1        0.0525
     12 C          52.7265   95.7823   -2.1985 C.ar    1  UNL1        0.0156
     13 C          51.4138   95.8720   -2.9186 C.ar    1  UNL1        0.0135
     14 C          51.3852   96.1079   -4.3996 C.ar    1  UNL1        0.0683
     15 CL         50.0724   96.1976   -5.1197 Cl      1  UNL1       -0.0814
     16 C          52.6695   96.2541   -5.1607 C.ar    1  UNL1        0.0694
     17 CL         52.6410   96.4900   -6.6417 Cl      1  UNL1       -0.0813
     18 C          53.9823   96.1644   -4.4406 C.ar    1  UNL1        0.0270
     19 C          61.4369   94.2629    0.4799 C.3     1  UNL1        0.0735
     20 C          61.6034   93.3012    1.6190 C.3     1  UNL1        0.0320
     21 C          62.9456   92.6912    1.8954 C.3     1  UNL1        0.0042
     22 C          63.1121   91.7296    3.0344 C.3     1  UNL1        0.0174
     23 C          61.9364   91.3779    3.8971 C.3     1  UNL1        0.0720
     24 N          60.5942   91.9879    3.6207 N.3     1  UNL1       -0.2739
     25 C          60.4278   92.9496    2.4816 C.3     1  UNL1        0.0734
     26 C          59.4186   91.6362    4.4832 C.3     1  UNL1        0.0576
     27 C          57.9713   91.8061    4.8389 C.3     1  UNL1        0.0173
     28 C          58.8295   90.8571    5.6217 C.3     1  UNL1        0.0173
@<TRIPOS>BOND
     1     1     2    2
     2     2     3   am
     3     3    11    1
     4    11    12   ar
     5    12    13   ar
     6    13    14   ar
     7    14    15    1
     8    14    16   ar
     9    16    17    1
    10    16    18   ar
    11     2     4   am
    12     4     5    1
    13     5     6    1
    14     6     7    1
    15     7    19    1
    16    20    19    1
    17    20    21    1
    18    21    22    1
    19    22    23    1
    20    23    24    1
    21    24    26    1
    22    26    27    1
    23    27    28    1
    24    24    25    1
    25     7     8    1
    26     8     9    1
    27    18    11   ar
    28     9     4    1
    29    25    20    1
    30    28    26    1
    31     3    10    1
@<TRIPOS>MOLECULE
*****
 28 31 0 0 0
SMALL
GASTEIGER

@<TRIPOS>ATOM
      1 O          62.4723   87.8354   11.6765 O.2     1  UNL1       -0.2522
      2 C          61.7054   86.9618   10.7286 C.2     1  UNL1        0.3078
      3 N          61.7502   85.4702   10.8801 N.am    1  UNL1       -0.2681
      4 N          60.8936   87.5799    9.6290 N.am    1  UNL1       -0.2611
      5 C          60.8487   89.0715    9.4774 C.3     1  UNL1        0.1123
      6 C          60.0370   89.6896    8.3778 C.3     1  UNL1        0.0940
      7 N          59.2701   88.8159    7.4298 N.3     1  UNL1       -0.2697
      8 C          59.3149   87.3243    7.5814 C.3     1  UNL1        0.0940
      9 C          60.1267   86.7063    8.6810 C.3     1  UNL1        0.1123
     10 H          61.2469   84.8969   10.2579 H       1  UNL1        0.1564
     11 C          62.5620   84.8521   11.9797 C.ar    1  UNL1        0.0525
     12 C          62.7678   83.3668   12.0160 C.ar    1  UNL1        0.0156
     13 C          63.5795   82.7488   13.1156 C.ar    1  UNL1        0.0135
     14 C          64.1855   83.6161   14.1788 C.ar    1  UNL1        0.0683
     15 CL         64.9973   82.9980   15.2784 Cl      1  UNL1       -0.0814
     16 C          63.9798   85.1014   14.1425 C.ar    1  UNL1        0.0694
     17 CL         64.5857   85.9688   15.2058 Cl      1  UNL1       -0.0813
     18 C          63.1680   85.7195   13.0430 C.ar    1  UNL1        0.0270
     19 C          58.4583   89.4340    6.3302 C.3     1  UNL1        0.0735
     20 C          59.0424   90.5338    5.4941 C.3     1  UNL1        0.0320
     21 C          58.2475   91.7781    5.2299 C.3     1  UNL1        0.0042
     22 C          58.8316   92.8779    4.3937 C.3     1  UNL1        0.0174
     23 C          60.2107   92.7334    3.8217 C.3     1  UNL1        0.0720
     24 N          61.0057   91.4892    4.0859 N.3     1  UNL1       -0.2739
     25 C          60.4215   90.3893    4.9221 C.3     1  UNL1        0.0734
     26 C          62.3848   91.3447    3.5140 C.3     1  UNL1        0.0576
     27 C          63.6581   90.5642    3.3746 C.3     1  UNL1        0.0173
     28 C          63.5002   91.8750    2.6626 C.3     1  UNL1        0.0173
@<TRIPOS>BOND
     1     1     2    2
     2     2     3   am
     3     3    11    1
     4    11    12   ar
     5    12    13   ar
     6    13    14   ar
     7    14    15    1
     8    14    16   ar
     9    16    17    1
    10    16    18   ar
    11     2     4   am
    12     4     5    1
    13     5     6    1
    14     6     7    1
    15     7    19    1
    16    20    19    1
    17    20    21    1
    18    21    22    1
    19    22    23    1
    20    23    24    1
    21    24    26    1
    22    26    27    1
    23    27    28    1
    24    24    25    1
    25     7     8    1
    26     8     9    1
    27    18    11   ar
    28     9     4    1
    29    25    20    1
    30    28    26    1
    31     3    10    1
@<TRIPOS>MOLECULE
*****
 28 31 0 0 0
SMALL
GASTEIGER

@<TRIPOS>ATOM
      1 O          55.5756   92.9514   -1.9575 O.2     1  UNL1       -0.2522
      2 C          56.3885   94.1446   -1.5505 C.2     1  UNL1        0.3078
      3 N          55.8725   95.5284   -1.8126 N.am    1  UNL1       -0.2681
      4 N          57.7174   93.9538   -0.8814 N.am    1  UNL1       -0.2611
      5 C          58.2334   92.5700   -0.6193 C.3     1  UNL1        0.1123
      6 C          59.5622   92.3793    0.0498 C.3     1  UNL1        0.0940
      7 N          60.3751   93.5724    0.4568 N.3     1  UNL1       -0.2697
      8 C          59.8591   94.9563    0.1947 C.3     1  UNL1        0.0940
      9 C          58.5303   95.1469   -0.4744 C.3     1  UNL1        0.1123
     10 H          56.4060   96.3115   -1.5455 H       1  UNL1        0.1564
     11 C          54.5436   95.7191   -2.4818 C.ar    1  UNL1        0.0525
     12 C          53.2872   95.7373   -1.6626 C.ar    1  UNL1        0.0156
     13 C          51.9583   95.9281   -2.3318 C.ar    1  UNL1        0.0135
     14 C          51.8859   96.1006   -3.8201 C.ar    1  UNL1        0.0683
     15 CL         50.5570   96.2914   -4.4892 Cl      1  UNL1       -0.0814
     16 C          53.1424   96.0824   -4.6392 C.ar    1  UNL1        0.0694
     17 CL         53.0700   96.2550   -6.1275 Cl      1  UNL1       -0.0813
     18 C          54.4712   95.8917   -3.9700 C.ar    1  UNL1        0.0270
     19 C          61.7040   93.3817    1.1260 C.3     1  UNL1        0.0735
     20 C          62.9004   94.1515    0.6507 C.3     1  UNL1        0.0320
     21 C          63.8343   94.7754    1.6450 C.3     1  UNL1        0.0042
     22 C          65.0307   95.5452    1.1697 C.3     1  UNL1        0.0174
     23 C          65.2933   95.6911   -0.3000 C.3     1  UNL1        0.0720
     24 N          64.3594   95.0672   -1.2943 N.3     1  UNL1       -0.2739
     25 C          63.1629   94.2974   -0.8189 C.3     1  UNL1        0.0734
     26 C          64.6219   95.2132   -2.7639 C.3     1  UNL1        0.0576
     27 C          64.6440   94.6262   -4.1441 C.3     1  UNL1        0.0173
     28 C          65.0544   96.0529   -3.9291 C.3     1  UNL1        0.0173
@<TRIPOS>BOND
     1     1     2    2
     2     2     3   am
     3     3    11    1
     4    11    12   ar
     5    12    13   ar
     6    13    14   ar
     7    14    15    1
     8    14    16   ar
     9    16    17    1
    10    16    18   ar
    11     2     4   am
    12     4     5    1
    13     5     6    1
    14     6     7    1
    15     7    19    1
    16    20    19    1
    17    20    21    1
    18    21    22    1
    19    22    23    1
    20    23    24    1
    21    24    26    1
    22    26    27    1
    23    27    28    1
    24    24    25    1
    25     7     8    1
    26     8     9    1
    27    18    11   ar
    28     9     4    1
    29    25    20    1
    30    28    26    1
    31     3    10    1
