@<TRIPOS>MOLECULE
*****
 49 52 0 0 0
SMALL
GASTEIGER

@<TRIPOS>ATOM
      1 C          63.8678   90.4281   13.4798 C.3     1  UNL1        0.0760
      2 C          65.7179   92.1541   14.0698 C.2     1  UNL1        0.2403
      3 O          64.9046   92.6264   15.2383 O.2     1  UNL1       -0.2733
      4 N          65.1995   91.0549   13.1905 N.am    1  UNL1       -0.3043
      5 H          65.7333   90.7449   12.4235 H       1  UNL1        0.1494
      6 C          67.0496   92.7809   13.7805 C.3     1  UNL1        0.1496
      7 N          67.2389   93.6002   12.5382 N.am    1  UNL1       -0.2824
      8 C          67.5970   92.9298   11.2451 C.2     1  UNL1        0.3046
      9 O          67.7658   91.4401   11.1941 O.2     1  UNL1       -0.2526
     10 N          67.7863   93.7489   10.0029 N.am    1  UNL1       -0.2578
     11 C          68.1445   93.0785    8.7097 C.3     1  UNL1        0.1168
     12 H          67.1281   94.5778   12.5717 H       1  UNL1        0.1514
     13 C          67.6175   95.2385   10.0538 C.3     1  UNL1        0.1297
     14 C          66.3805   95.8728    9.4904 C.ar    1  UNL1        0.0479
     15 C          66.1611   96.2567    8.0571 C.ar    1  UNL1        0.1033
     16 N          64.7907   96.8558    7.9422 N.ar    1  UNL1       -0.2350
     17 C          64.1632   96.8422    9.3046 C.ar    1  UNL1        0.1343
     18 S          65.1458   96.2347   10.2614 S.2     1  UNL1       -0.0671
     19 C          69.4729   91.9726   14.2540 C.3     1  UNL1        0.0022
     20 C          68.1919   92.5886   14.7334 C.3     1  UNL1        0.0270
     21 C          68.0533   93.0122   16.1656 C.3     1  UNL1        0.0022
     22 C          63.4916   90.0837   14.8904 C.3     1  UNL1        0.0459
     23 C          63.6191   88.6705   15.3769 C.ar    1  UNL1       -0.0205
     24 C          64.3751   87.6625   14.5631 C.ar    1  UNL1       -0.0042
     25 C          64.5026   86.2493   15.0496 C.ar    1  UNL1       -0.0003
     26 C          63.8741   85.8441   16.3498 C.ar    1  UNL1       -0.0000
     27 C          63.1181   86.8521   17.1637 C.ar    1  UNL1       -0.0003
     28 C          62.9906   88.2653   16.6773 C.ar    1  UNL1       -0.0042
     29 C          62.9124   90.1457   12.3585 C.3     1  UNL1        0.0216
     30 C          62.8971   88.7938   11.7088 C.3     1  UNL1        0.0217
     31 C          61.6364   88.2777   11.0807 C.3     1  UNL1        0.0792
     32 N          60.8030   89.1806   10.2203 N.am    1  UNL1       -0.2720
     33 C          60.2367   88.6721    8.9277 C.2     1  UNL1        0.4019
     34 O          60.5037   87.2608    8.4955 O.2     1  UNL1       -0.2264
     35 H          60.6278   90.1069   10.5039 H       1  UNL1        0.1527
     36 O          59.4033   89.5751    8.0673 O.3     1  UNL1       -0.4291
     37 C          59.3078   89.3263    6.5912 C.3     1  UNL1        0.2447
     38 C          59.1330   90.4780    5.6463 C.ar    1  UNL1        0.0714
     39 C          57.8307   91.1206    5.2706 C.ar    1  UNL1        0.1053
     40 N          58.1227   92.2291    4.3032 N.ar    1  UNL1       -0.2350
     41 C          59.6056   92.2718    4.0810 C.ar    1  UNL1        0.1343
     42 S          60.2299   91.1895    4.9110 S.2     1  UNL1       -0.0652
     43 C          61.2091   86.8588   11.3130 C.3     1  UNL1        0.0460
     44 C          62.1574   85.7330   11.0237 C.ar    1  UNL1       -0.0205
     45 C          62.6546   84.8652   12.1416 C.ar    1  UNL1       -0.0042
     46 C          63.6028   83.7396   11.8523 C.ar    1  UNL1       -0.0003
     47 C          64.0538   83.4817   10.4452 C.ar    1  UNL1       -0.0000
     48 C          63.5566   84.3494    9.3273 C.ar    1  UNL1       -0.0003
     49 C          62.6084   85.4751    9.6166 C.ar    1  UNL1       -0.0042
@<TRIPOS>BOND
     1    19    20    1
     2    20    21    1
     3    20     6    1
     4     6     7    1
     5     7     8   am
     6     8     9    2
     7     8    10   am
     8    10    11    1
     9    10    13    1
    10    13    14    1
    11    14    15   ar
    12    15    16   ar
    13    16    17   ar
    14    17    18   ar
    15     6     2    1
    16     2     3    2
    17     2     4   am
    18     4     1    1
    19     1    29    1
    20    29    30    1
    21    31    30    1
    22    31    43    1
    23    43    44    1
    24    44    45   ar
    25    45    46   ar
    26    46    47   ar
    27    47    48   ar
    28    48    49   ar
    29    31    32    1
    30    32    33   am
    31    33    34    2
    32    33    36    1
    33    36    37    1
    34    37    38    1
    35    38    39   ar
    36    39    40   ar
    37    40    41   ar
    38    41    42   ar
    39     1    22    1
    40    22    23    1
    41    23    24   ar
    42    24    25   ar
    43    25    26   ar
    44    26    27   ar
    45    27    28   ar
    46    18    14   ar
    47    49    44   ar
    48    42    38   ar
    49    28    23   ar
    50     7    12    1
    51     4     5    1
    52    32    35    1
@<TRIPOS>MOLECULE
*****
 49 52 0 0 0
SMALL
GASTEIGER

@<TRIPOS>ATOM
      1 C          63.9384   88.8058   14.1651 C.3     1  UNL1        0.0760
      2 C          65.0344   91.1466   14.4293 C.2     1  UNL1        0.2403
      3 O          63.9696   91.5342   15.4121 O.2     1  UNL1       -0.2733
      4 N          65.0188   89.7823   13.8058 N.am    1  UNL1       -0.3043
      5 H          65.7177   89.5279   13.1607 H       1  UNL1        0.1494
      6 C          66.1149   92.1231   14.0700 C.3     1  UNL1        0.1496
      7 N          66.0320   92.8944   12.7862 N.am    1  UNL1       -0.2824
      8 C          66.2259   94.3818   12.7911 C.2     1  UNL1        0.3046
      9 O          66.5027   95.0979   14.0798 O.2     1  UNL1       -0.2526
     10 N          66.1431   95.1532   11.5073 N.am    1  UNL1       -0.2578
     11 C          66.3370   96.6406   11.5122 C.3     1  UNL1        0.1168
     12 H          65.8504   92.4245   11.9404 H       1  UNL1        0.1514
     13 C          65.8663   94.4372   10.2187 C.3     1  UNL1        0.1297
     14 C          66.9769   93.7293    9.5005 C.ar    1  UNL1        0.0479
     15 C          67.6067   94.1594    8.2089 C.ar    1  UNL1        0.1033
     16 N          68.6716   93.1630    7.8580 N.ar    1  UNL1       -0.2350
     17 C          68.6999   92.1170    8.9328 C.ar    1  UNL1        0.1343
     18 S          67.6525   92.4670    9.9479 S.2     1  UNL1       -0.0671
     19 C          68.6786   92.1425   14.4904 C.3     1  UNL1        0.0022
     20 C          67.2781   92.3282   14.9945 C.3     1  UNL1        0.0270
     21 C          67.0409   92.7191   16.4231 C.3     1  UNL1        0.0022
     22 C          64.0726   87.9578   15.3951 C.3     1  UNL1        0.0459
     23 C          64.0674   86.4623   15.2791 C.ar    1  UNL1       -0.0205
     24 C          62.9321   85.6693   15.8555 C.ar    1  UNL1       -0.0042
     25 C          62.9269   84.1738   15.7396 C.ar    1  UNL1       -0.0003
     26 C          64.0570   83.4713   15.0473 C.ar    1  UNL1       -0.0000
     27 C          65.1923   84.2642   14.4708 C.ar    1  UNL1       -0.0003
     28 C          65.1975   85.7597   14.5867 C.ar    1  UNL1       -0.0042
     29 C          62.7237   88.6774   13.2944 C.3     1  UNL1        0.0216
     30 C          62.8780   88.5081   11.8120 C.3     1  UNL1        0.0217
     31 C          61.7049   88.0827   10.9796 C.3     1  UNL1        0.0792
     32 N          61.0317   89.0697   10.0725 N.am    1  UNL1       -0.2720
     33 C          60.0724   88.5909    9.0233 C.2     1  UNL1        0.4019
     34 O          59.7863   87.1254    8.8813 O.2     1  UNL1       -0.2264
     35 H          61.2195   90.0316   10.1657 H       1  UNL1        0.1527
     36 O          59.3992   89.5779    8.1163 O.3     1  UNL1       -0.4291
     37 C          59.3403   89.3205    6.6397 C.3     1  UNL1        0.2447
     38 C          59.1489   90.4627    5.6864 C.ar    1  UNL1        0.0714
     39 C          57.8404   91.1031    5.3290 C.ar    1  UNL1        0.1053
     40 N          58.1152   92.2012    4.3448 N.ar    1  UNL1       -0.2350
     41 C          59.5936   92.2395    4.0938 C.ar    1  UNL1        0.1343
     42 S          60.2324   91.1650    4.9230 S.2     1  UNL1       -0.0652
     43 C          61.2051   86.6705   11.0542 C.3     1  UNL1        0.0460
     44 C          62.1280   85.5306   10.7394 C.ar    1  UNL1       -0.0205
     45 C          62.6857   85.3773    9.3554 C.ar    1  UNL1       -0.0042
     46 C          63.6085   84.2374    9.0408 C.ar    1  UNL1       -0.0003
     47 C          63.9737   83.2509   10.1101 C.ar    1  UNL1       -0.0000
     48 C          63.4160   83.4042   11.4941 C.ar    1  UNL1       -0.0003
     49 C          62.4932   84.5441   11.8087 C.ar    1  UNL1       -0.0042
@<TRIPOS>BOND
     1    19    20    1
     2    20    21    1
     3    20     6    1
     4     6     7    1
     5     7     8   am
     6     8     9    2
     7     8    10   am
     8    10    11    1
     9    10    13    1
    10    13    14    1
    11    14    15   ar
    12    15    16   ar
    13    16    17   ar
    14    17    18   ar
    15     6     2    1
    16     2     3    2
    17     2     4   am
    18     4     1    1
    19     1    29    1
    20    29    30    1
    21    31    30    1
    22    31    43    1
    23    43    44    1
    24    44    45   ar
    25    45    46   ar
    26    46    47   ar
    27    47    48   ar
    28    48    49   ar
    29    31    32    1
    30    32    33   am
    31    33    34    2
    32    33    36    1
    33    36    37    1
    34    37    38    1
    35    38    39   ar
    36    39    40   ar
    37    40    41   ar
    38    41    42   ar
    39     1    22    1
    40    22    23    1
    41    23    24   ar
    42    24    25   ar
    43    25    26   ar
    44    26    27   ar
    45    27    28   ar
    46    18    14   ar
    47    49    44   ar
    48    42    38   ar
    49    28    23   ar
    50     7    12    1
    51     4     5    1
    52    32    35    1
@<TRIPOS>MOLECULE
*****
 49 52 0 0 0
SMALL
GASTEIGER

@<TRIPOS>ATOM
      1 C          63.2695   90.7445   11.0077 C.3     1  UNL1        0.0760
      2 C          61.4701   88.9281   10.5462 C.2     1  UNL1        0.2403
      3 O          60.4491   89.7560   11.2687 O.2     1  UNL1       -0.2733
      4 N          62.8804   89.4224   10.4157 N.am    1  UNL1       -0.3043
      5 H          63.5505   88.8790    9.9415 H       1  UNL1        0.1494
      6 C          61.0810   87.6059    9.9542 C.3     1  UNL1        0.1496
      7 N          61.5525   86.3317   10.5899 N.am    1  UNL1       -0.2824
      8 C          62.5963   85.4959    9.9101 C.2     1  UNL1        0.3046
      9 O          63.1684   85.9344    8.5946 O.2     1  UNL1       -0.2526
     10 N          63.0678   84.2217   10.5457 N.am    1  UNL1       -0.2578
     11 C          64.1115   83.3859    9.8659 C.3     1  UNL1        0.1168
     12 H          61.1770   86.0439   11.4533 H       1  UNL1        0.1514
     13 C          62.4956   83.7833   11.8611 C.3     1  UNL1        0.1297
     14 C          62.4652   82.3265   12.2176 C.ar    1  UNL1        0.0479
     15 C          62.9892   81.2015   11.3752 C.ar    1  UNL1        0.1033
     16 N          62.7533   79.9188   12.1161 N.ar    1  UNL1       -0.2350
     17 C          62.0835   80.2510   13.4165 C.ar    1  UNL1        0.1343
     18 S          61.9055   81.7391   13.4793 S.2     1  UNL1       -0.0671
     19 C          59.8051   88.8315    8.0516 C.3     1  UNL1        0.0022
     20 C          60.2204   87.5580    8.7267 C.3     1  UNL1        0.0270
     21 C          59.7751   86.2365    8.1741 C.3     1  UNL1        0.0022
     22 C          63.6912   91.8720   10.1127 C.3     1  UNL1        0.0459
     23 C          65.0154   92.5437   10.3257 C.ar    1  UNL1       -0.0205
     24 C          65.0688   93.9424   10.8649 C.ar    1  UNL1       -0.0042
     25 C          66.3930   94.6140   11.0780 C.ar    1  UNL1       -0.0003
     26 C          67.6638   93.8870   10.7519 C.ar    1  UNL1       -0.0000
     27 C          67.6105   92.4882   10.2127 C.ar    1  UNL1       -0.0003
     28 C          66.2863   91.8165    9.9996 C.ar    1  UNL1       -0.0042
     29 C          63.2369   90.9393   12.4946 C.3     1  UNL1        0.0216
     30 C          63.6831   89.8343   13.4056 C.3     1  UNL1        0.0217
     31 C          64.1283   90.1482   14.8032 C.3     1  UNL1        0.0792
     32 N          64.1615   89.0655   15.8408 N.am    1  UNL1       -0.2720
     33 C          62.8995   88.6613   16.5437 C.2     1  UNL1        0.4019
     34 O          61.6043   89.3399   16.2091 O.2     1  UNL1       -0.2264
     35 H          65.0116   88.6201   16.0604 H       1  UNL1        0.1527
     36 O          62.9327   87.5785   17.5813 O.3     1  UNL1       -0.4291
     37 C          62.5055   86.1854   17.2254 C.3     1  UNL1        0.2447
     38 C          63.3217   85.3730   16.2643 C.ar    1  UNL1        0.0714
     39 C          63.2678   83.8828   16.1020 C.ar    1  UNL1        0.1053
     40 N          64.2480   83.4970   15.0341 N.ar    1  UNL1       -0.2350
     41 C          64.9077   84.7488   14.5363 C.ar    1  UNL1        0.1343
     42 S          64.3352   85.9082   15.2966 S.2     1  UNL1       -0.0652
     43 C          64.5402   91.5449   15.1633 C.3     1  UNL1        0.0460
     44 C          65.9845   91.9435   15.0893 C.ar    1  UNL1       -0.0205
     45 C          66.6223   92.6680   16.2374 C.ar    1  UNL1       -0.0042
     46 C          68.0665   93.0665   16.1633 C.ar    1  UNL1       -0.0003
     47 C          68.8728   92.7406   14.9411 C.ar    1  UNL1       -0.0000
     48 C          68.2349   92.0162   13.7930 C.ar    1  UNL1       -0.0003
     49 C          66.7907   91.6176   13.8671 C.ar    1  UNL1       -0.0042
@<TRIPOS>BOND
     1    19    20    1
     2    20    21    1
     3    20     6    1
     4     6     7    1
     5     7     8   am
     6     8     9    2
     7     8    10   am
     8    10    11    1
     9    10    13    1
    10    13    14    1
    11    14    15   ar
    12    15    16   ar
    13    16    17   ar
    14    17    18   ar
    15     6     2    1
    16     2     3    2
    17     2     4   am
    18     4     1    1
    19     1    29    1
    20    29    30    1
    21    31    30    1
    22    31    43    1
    23    43    44    1
    24    44    45   ar
    25    45    46   ar
    26    46    47   ar
    27    47    48   ar
    28    48    49   ar
    29    31    32    1
    30    32    33   am
    31    33    34    2
    32    33    36    1
    33    36    37    1
    34    37    38    1
    35    38    39   ar
    36    39    40   ar
    37    40    41   ar
    38    41    42   ar
    39     1    22    1
    40    22    23    1
    41    23    24   ar
    42    24    25   ar
    43    25    26   ar
    44    26    27   ar
    45    27    28   ar
    46    18    14   ar
    47    49    44   ar
    48    42    38   ar
    49    28    23   ar
    50     7    12    1
    51     4     5    1
    52    32    35    1
@<TRIPOS>MOLECULE
*****
 49 52 0 0 0
SMALL
GASTEIGER

@<TRIPOS>ATOM
      1 C          62.8928   86.1173   12.1295 C.3     1  UNL1        0.0760
      2 C          61.5532   88.3136   11.7667 C.2     1  UNL1        0.2403
      3 O          60.2681   87.5476   11.8743 O.2     1  UNL1       -0.2733
      4 N          62.8656   87.5985   11.8943 N.am    1  UNL1       -0.3043
      5 H          63.7091   88.1013   11.8236 H       1  UNL1        0.1494
      6 C          61.5260   89.7948   11.5314 C.3     1  UNL1        0.1496
      7 N          62.6491   90.6544   12.0313 N.am    1  UNL1       -0.2824
      8 C          63.5578   91.3428   11.0563 C.2     1  UNL1        0.3046
      9 O          63.3432   91.1717    9.5816 O.2     1  UNL1       -0.2526
     10 N          64.6809   92.2023   11.5561 N.am    1  UNL1       -0.2578
     11 C          65.5895   92.8907   10.5812 C.3     1  UNL1        0.1168
     12 H          62.7899   90.7666   12.9991 H       1  UNL1        0.1514
     13 C          64.8954   92.3734   13.0307 C.3     1  UNL1        0.1297
     14 C          66.2879   92.4748   13.5793 C.ar    1  UNL1        0.0479
     15 C          67.5203   91.8716   12.9734 C.ar    1  UNL1        0.1033
     16 N          68.6864   92.2212   13.8498 N.ar    1  UNL1       -0.2350
     17 C          68.1746   93.0406   14.9973 C.ar    1  UNL1        0.1343
     18 S          66.6922   93.1973   14.8301 S.2     1  UNL1       -0.0671
     19 C          59.3833   91.2641   11.5359 C.3     1  UNL1        0.0022
     20 C          60.3756   90.4165   10.7964 C.3     1  UNL1        0.0270
     21 C          60.2177   90.1906    9.3220 C.3     1  UNL1        0.0022
     22 C          61.9652   85.2194   11.3656 C.3     1  UNL1        0.0459
     23 C          61.9513   85.2566    9.8661 C.ar    1  UNL1       -0.0205
     24 C          63.0865   84.6570    9.0904 C.ar    1  UNL1       -0.0042
     25 C          63.0726   84.6942    7.5909 C.ar    1  UNL1       -0.0003
     26 C          61.9235   85.3311    6.8671 C.ar    1  UNL1       -0.0000
     27 C          60.7882   85.9307    7.6428 C.ar    1  UNL1       -0.0003
     28 C          60.8021   85.8935    9.1423 C.ar    1  UNL1       -0.0042
     29 C          63.8475   85.5340   13.1286 C.3     1  UNL1        0.0216
     30 C          63.7268   84.0934   13.5287 C.3     1  UNL1        0.0217
     31 C          62.5622   83.6405   14.3586 C.3     1  UNL1        0.0792
     32 N          61.8848   84.6028   15.2887 N.am    1  UNL1       -0.2720
     33 C          62.6588   85.2363   16.4066 C.2     1  UNL1        0.4019
     34 O          64.1102   84.9074   16.5944 O.2     1  UNL1       -0.2264
     35 H          60.9321   84.8187   15.1654 H       1  UNL1        0.1527
     36 O          61.9813   86.1985   17.3367 O.3     1  UNL1       -0.4291
     37 C          62.6616   87.4806   17.7153 C.3     1  UNL1        0.2447
     38 C          63.1779   88.3993   16.6479 C.ar    1  UNL1        0.0714
     39 C          63.8641   87.9816   15.3812 C.ar    1  UNL1        0.1053
     40 N          64.2090   89.2212   14.6102 N.ar    1  UNL1       -0.2350
     41 C          63.7359   90.4051   15.4004 C.ar    1  UNL1        0.1343
     42 S          63.0987   89.8972   16.6598 S.2     1  UNL1       -0.0652
     43 C          62.0750   82.2254   14.2583 C.3     1  UNL1        0.0460
     44 C          62.3874   81.4093   13.0391 C.ar    1  UNL1       -0.0205
     45 C          62.7708   82.0902   11.7588 C.ar    1  UNL1       -0.0042
     46 C          63.0832   81.2741   10.5396 C.ar    1  UNL1       -0.0003
     47 C          63.0122   79.7770   10.6009 C.ar    1  UNL1       -0.0000
     48 C          62.6288   79.0961   11.8812 C.ar    1  UNL1       -0.0003
     49 C          62.3164   79.9122   13.1003 C.ar    1  UNL1       -0.0042
@<TRIPOS>BOND
     1    19    20    1
     2    20    21    1
     3    20     6    1
     4     6     7    1
     5     7     8   am
     6     8     9    2
     7     8    10   am
     8    10    11    1
     9    10    13    1
    10    13    14    1
    11    14    15   ar
    12    15    16   ar
    13    16    17   ar
    14    17    18   ar
    15     6     2    1
    16     2     3    2
    17     2     4   am
    18     4     1    1
    19     1    29    1
    20    29    30    1
    21    31    30    1
    22    31    43    1
    23    43    44    1
    24    44    45   ar
    25    45    46   ar
    26    46    47   ar
    27    47    48   ar
    28    48    49   ar
    29    31    32    1
    30    32    33   am
    31    33    34    2
    32    33    36    1
    33    36    37    1
    34    37    38    1
    35    38    39   ar
    36    39    40   ar
    37    40    41   ar
    38    41    42   ar
    39     1    22    1
    40    22    23    1
    41    23    24   ar
    42    24    25   ar
    43    25    26   ar
    44    26    27   ar
    45    27    28   ar
    46    18    14   ar
    47    49    44   ar
    48    42    38   ar
    49    28    23   ar
    50     7    12    1
    51     4     5    1
    52    32    35    1
@<TRIPOS>MOLECULE
*****
 49 52 0 0 0
SMALL
GASTEIGER

@<TRIPOS>ATOM
      1 C          61.1412   89.1431   11.4923 C.3     1  UNL1        0.0760
      2 C          62.3072   86.9494   10.7319 C.2     1  UNL1        0.2403
      3 O          62.8211   87.6469    9.5074 O.2     1  UNL1       -0.2733
      4 N          61.4673   87.6975   11.7244 N.am    1  UNL1       -0.3043
      5 H          61.1300   87.2397   12.5280 H       1  UNL1        0.1494
      6 C          62.6333   85.5038   10.9640 C.3     1  UNL1        0.1496
      7 N          62.4422   84.9008   12.3242 N.am    1  UNL1       -0.2824
      8 C          63.1318   85.5002   13.5138 C.2     1  UNL1        0.3046
      9 O          64.0124   86.7025   13.3433 O.2     1  UNL1       -0.2526
     10 N          62.9407   84.8973   14.8740 N.am    1  UNL1       -0.2578
     11 C          63.6303   85.4967   16.0636 C.3     1  UNL1        0.1168
     12 H          61.8642   84.1118   12.4361 H       1  UNL1        0.1514
     13 C          62.0601   83.6951   15.0444 C.3     1  UNL1        0.1297
     14 C          62.4211   82.4004   14.3784 C.ar    1  UNL1        0.0479
     15 C          63.7872   82.0052   13.9013 C.ar    1  UNL1        0.1033
     16 N          63.6897   80.6343   13.3005 N.ar    1  UNL1       -0.2350
     17 C          62.2634   80.1821   13.4063 C.ar    1  UNL1        0.1343
     18 S          61.4793   81.2737   14.0725 S.2     1  UNL1       -0.0671
     19 C          63.9313   83.4141   10.1282 C.3     1  UNL1        0.0022
     20 C          63.1504   84.6611    9.8360 C.3     1  UNL1        0.0270
     21 C          62.8867   85.0654    8.4158 C.3     1  UNL1        0.0022
     22 C          59.9439   89.5194   10.6706 C.3     1  UNL1        0.0459
     23 C          59.7112   88.8652    9.3410 C.ar    1  UNL1       -0.0205
     24 C          59.3737   87.4053    9.2722 C.ar    1  UNL1       -0.0042
     25 C          59.1410   86.7512    7.9426 C.ar    1  UNL1       -0.0003
     26 C          59.2458   87.5569    6.6817 C.ar    1  UNL1       -0.0000
     27 C          59.5833   89.0169    6.7505 C.ar    1  UNL1       -0.0003
     28 C          59.8160   89.6710    8.0801 C.ar    1  UNL1       -0.0042
     29 C          62.0124   90.2125   12.0818 C.3     1  UNL1        0.0216
     30 C          63.1866   90.7343   11.3080 C.3     1  UNL1        0.0217
     31 C          64.3344   91.3768   12.0292 C.3     1  UNL1        0.0792
     32 N          64.1348   91.9399   13.4051 N.am    1  UNL1       -0.2720
     33 C          64.3445   91.0701   14.6091 C.2     1  UNL1        0.4019
     34 O          64.7537   89.6373   14.4372 O.2     1  UNL1       -0.2264
     35 H          63.8662   92.8803   13.5179 H       1  UNL1        0.1527
     36 O          64.1449   91.6332   15.9850 O.3     1  UNL1       -0.4291
     37 C          65.2496   92.4006   16.6488 C.3     1  UNL1        0.2447
     38 C          66.5227   92.6770   15.9053 C.ar    1  UNL1        0.0714
     39 C          66.6451   93.4391   14.6192 C.ar    1  UNL1        0.1053
     40 N          68.0950   93.4729   14.2364 N.ar    1  UNL1       -0.2350
     41 C          68.8689   92.7317   15.2861 C.ar    1  UNL1        0.1343
     42 S          67.8971   92.2398   16.3175 S.2     1  UNL1       -0.0652
     43 C          65.6816   91.4562   11.3745 C.3     1  UNL1        0.0460
     44 C          66.1488   92.7491   10.7742 C.ar    1  UNL1       -0.0205
     45 C          65.4024   94.0195   11.0554 C.ar    1  UNL1       -0.0042
     46 C          65.8697   95.3123   10.4552 C.ar    1  UNL1       -0.0003
     47 C          67.0832   95.3347    9.5738 C.ar    1  UNL1       -0.0000
     48 C          67.8296   94.0643    9.2927 C.ar    1  UNL1       -0.0003
     49 C          67.3623   92.7715    9.8929 C.ar    1  UNL1       -0.0042
@<TRIPOS>BOND
     1    19    20    1
     2    20    21    1
     3    20     6    1
     4     6     7    1
     5     7     8   am
     6     8     9    2
     7     8    10   am
     8    10    11    1
     9    10    13    1
    10    13    14    1
    11    14    15   ar
    12    15    16   ar
    13    16    17   ar
    14    17    18   ar
    15     6     2    1
    16     2     3    2
    17     2     4   am
    18     4     1    1
    19     1    29    1
    20    29    30    1
    21    31    30    1
    22    31    43    1
    23    43    44    1
    24    44    45   ar
    25    45    46   ar
    26    46    47   ar
    27    47    48   ar
    28    48    49   ar
    29    31    32    1
    30    32    33   am
    31    33    34    2
    32    33    36    1
    33    36    37    1
    34    37    38    1
    35    38    39   ar
    36    39    40   ar
    37    40    41   ar
    38    41    42   ar
    39     1    22    1
    40    22    23    1
    41    23    24   ar
    42    24    25   ar
    43    25    26   ar
    44    26    27   ar
    45    27    28   ar
    46    18    14   ar
    47    49    44   ar
    48    42    38   ar
    49    28    23   ar
    50     7    12    1
    51     4     5    1
    52    32    35    1
@<TRIPOS>MOLECULE
*****
 49 52 0 0 0
SMALL
GASTEIGER

@<TRIPOS>ATOM
      1 C          61.8745   88.4155   11.4678 C.3     1  UNL1        0.0760
      2 C          62.5939   86.0825   10.5790 C.2     1  UNL1        0.2403
      3 O          62.6665   86.6353    9.1866 O.2     1  UNL1       -0.2733
      4 N          62.1979   86.9726   11.7197 N.am    1  UNL1       -0.3043
      5 H          62.1502   86.6098   12.6337 H       1  UNL1        0.1494
      6 C          62.9172   84.6396   10.8310 C.3     1  UNL1        0.1496
      7 N          62.6323   84.0302   12.1717 N.am    1  UNL1       -0.2824
      8 C          63.6724   84.0739   13.2517 C.2     1  UNL1        0.3046
      9 O          64.9974   84.7270   12.9910 O.2     1  UNL1       -0.2526
     10 N          63.3875   83.4645   14.5924 N.am    1  UNL1       -0.2578
     11 C          64.4275   83.5081   15.6723 C.3     1  UNL1        0.1168
     12 H          61.7627   83.6015   12.3428 H       1  UNL1        0.1514
     13 C          62.0626   82.8114   14.8530 C.3     1  UNL1        0.1297
     14 C          61.7734   81.4510   14.2910 C.ar    1  UNL1        0.0479
     15 C          60.4367   80.7707   14.2720 C.ar    1  UNL1        0.1033
     16 N          60.6074   79.4314   13.6186 N.ar    1  UNL1       -0.2350
     17 C          62.0496   79.2839   13.2336 C.ar    1  UNL1        0.1343
     18 S          62.7703   80.5321   13.6492 S.2     1  UNL1       -0.0671
     19 C          63.3553   84.2071    8.3069 C.3     1  UNL1        0.0022
     20 C          63.5255   83.8062    9.7423 C.3     1  UNL1        0.0270
     21 C          64.3040   82.5718   10.0889 C.3     1  UNL1        0.0022
     22 C          60.4844   88.8140   11.0690 C.3     1  UNL1        0.0459
     23 C          59.9950   88.5382    9.6782 C.ar    1  UNL1       -0.0205
     24 C          59.4097   87.1990    9.3409 C.ar    1  UNL1       -0.0042
     25 C          58.9203   86.9232    7.9500 C.ar    1  UNL1       -0.0003
     26 C          59.0162   87.9866    6.8965 C.ar    1  UNL1       -0.0000
     27 C          59.6015   89.3259    7.2338 C.ar    1  UNL1       -0.0003
     28 C          60.0909   89.6017    8.6247 C.ar    1  UNL1       -0.0042
     29 C          62.9411   89.4599   11.6146 C.3     1  UNL1        0.0216
     30 C          62.7870   90.5514   12.6318 C.3     1  UNL1        0.0217
     31 C          63.9994   91.1375   13.2925 C.3     1  UNL1        0.0792
     32 N          64.9530   91.9800   12.4982 N.am    1  UNL1       -0.2720
     33 C          65.8639   92.9445   13.1983 C.2     1  UNL1        0.4019
     34 O          65.8212   93.0665   14.6926 O.2     1  UNL1       -0.2264
     35 H          64.9810   91.8999   11.5173 H       1  UNL1        0.1527
     36 O          66.8174   93.7869   12.4039 O.3     1  UNL1       -0.4291
     37 C          66.3387   95.0511   11.7537 C.3     1  UNL1        0.2447
     38 C          66.7247   95.3586   10.3372 C.ar    1  UNL1        0.0714
     39 C          67.1763   94.3628    9.3104 C.ar    1  UNL1        0.1053
     40 N          67.4576   95.1047    8.0374 N.ar    1  UNL1       -0.2350
     41 C          67.1799   96.5591    8.2775 C.ar    1  UNL1        0.1343
     42 S          66.7269   96.7160    9.6988 S.2     1  UNL1       -0.0652
     43 C          64.2583   90.8812   14.7476 C.3     1  UNL1        0.0460
     44 C          63.9655   89.5324   15.3352 C.ar    1  UNL1       -0.0205
     45 C          64.4715   88.2934   14.6580 C.ar    1  UNL1       -0.0042
     46 C          64.1787   86.9447   15.2456 C.ar    1  UNL1       -0.0003
     47 C          63.3799   86.8351   16.5105 C.ar    1  UNL1       -0.0000
     48 C          62.8739   88.0742   17.1877 C.ar    1  UNL1       -0.0003
     49 C          63.1667   89.4228   16.6001 C.ar    1  UNL1       -0.0042
@<TRIPOS>BOND
     1    19    20    1
     2    20    21    1
     3    20     6    1
     4     6     7    1
     5     7     8   am
     6     8     9    2
     7     8    10   am
     8    10    11    1
     9    10    13    1
    10    13    14    1
    11    14    15   ar
    12    15    16   ar
    13    16    17   ar
    14    17    18   ar
    15     6     2    1
    16     2     3    2
    17     2     4   am
    18     4     1    1
    19     1    29    1
    20    29    30    1
    21    31    30    1
    22    31    43    1
    23    43    44    1
    24    44    45   ar
    25    45    46   ar
    26    46    47   ar
    27    47    48   ar
    28    48    49   ar
    29    31    32    1
    30    32    33   am
    31    33    34    2
    32    33    36    1
    33    36    37    1
    34    37    38    1
    35    38    39   ar
    36    39    40   ar
    37    40    41   ar
    38    41    42   ar
    39     1    22    1
    40    22    23    1
    41    23    24   ar
    42    24    25   ar
    43    25    26   ar
    44    26    27   ar
    45    27    28   ar
    46    18    14   ar
    47    49    44   ar
    48    42    38   ar
    49    28    23   ar
    50     7    12    1
    51     4     5    1
    52    32    35    1
@<TRIPOS>MOLECULE
*****
 49 52 0 0 0
SMALL
GASTEIGER

@<TRIPOS>ATOM
      1 C          62.2390   89.8404   10.5377 C.3     1  UNL1        0.0760
      2 C          61.8634   87.3782   11.2771 C.2     1  UNL1        0.2403
      3 O          60.6560   87.7980   12.0618 O.2     1  UNL1       -0.2733
      4 N          62.6550   88.3994   10.5150 N.am    1  UNL1       -0.3043
      5 H          63.4475   88.1239   10.0000 H       1  UNL1        0.1494
      6 C          62.2794   85.9372   11.2544 C.3     1  UNL1        0.1496
      7 N          62.2375   85.1246   12.5145 N.am    1  UNL1       -0.2824
      8 C          63.1043   85.5016   13.6792 C.2     1  UNL1        0.3046
      9 O          64.0129   86.6914   13.5838 O.2     1  UNL1       -0.2526
     10 N          63.0625   84.6890   14.9393 N.am    1  UNL1       -0.2578
     11 C          63.9293   85.0661   16.1040 C.3     1  UNL1        0.1168
     12 H          61.6412   84.3437   12.5771 H       1  UNL1        0.1514
     13 C          62.1539   83.4994   15.0347 C.3     1  UNL1        0.1297
     14 C          62.4319   82.2755   14.2131 C.ar    1  UNL1        0.0479
     15 C          63.6482   82.0385   13.3680 C.ar    1  UNL1        0.1033
     16 N          63.5104   80.6903   12.7250 N.ar    1  UNL1       -0.2350
     17 C          62.2088   80.0941   13.1728 C.ar    1  UNL1        0.1343
     18 S          61.5423   81.0738   14.0925 S.2     1  UNL1       -0.0671
     19 C          63.5260   84.0334   10.0009 C.3     1  UNL1        0.0022
     20 C          62.7372   85.3089    9.9716 C.3     1  UNL1        0.0270
     21 C          62.4063   85.9561    8.6595 C.3     1  UNL1        0.0022
     22 C          60.9530   90.2601    9.8894 C.3     1  UNL1        0.0459
     23 C          60.2436   89.3247    8.9558 C.ar    1  UNL1       -0.0205
     24 C          60.0508   89.7039    7.5174 C.ar    1  UNL1       -0.0042
     25 C          59.3414   88.7685    6.5838 C.ar    1  UNL1       -0.0003
     26 C          58.8247   87.4539    7.0885 C.ar    1  UNL1       -0.0000
     27 C          59.0174   87.0746    8.5270 C.ar    1  UNL1       -0.0003
     28 C          59.7268   88.0101    9.4606 C.ar    1  UNL1       -0.0042
     29 C          63.1089   90.8617   11.2087 C.3     1  UNL1        0.0216
     30 C          64.1099   91.6382   10.4056 C.3     1  UNL1        0.0217
     31 C          65.2192   92.3731   11.0980 C.3     1  UNL1        0.0792
     32 N          65.0616   92.7933   12.5292 N.am    1  UNL1       -0.2720
     33 C          66.2693   92.9274   13.4089 C.2     1  UNL1        0.4019
     34 O          67.6345   92.6412   12.8572 O.2     1  UNL1       -0.2264
     35 H          64.1656   92.9812   12.8913 H       1  UNL1        0.1527
     36 O          66.1117   93.3477   14.8401 O.3     1  UNL1       -0.4291
     37 C          65.8184   92.3223   15.8949 C.3     1  UNL1        0.2447
     38 C          64.7544   91.2907   15.6628 C.ar    1  UNL1        0.0714
     39 C          63.5004   91.1209   16.4681 C.ar    1  UNL1        0.1053
     40 N          62.7286   89.9731   15.8877 N.ar    1  UNL1       -0.2350
     41 C          63.5057   89.4334   14.7237 C.ar    1  UNL1        0.1343
     42 S          64.7577   90.2478   14.5847 S.2     1  UNL1       -0.0652
     43 C          66.4861   92.6877   10.3591 C.3     1  UNL1        0.0460
     44 C          66.7322   94.0770    9.8499 C.ar    1  UNL1       -0.0205
     45 C          67.3549   94.2821    8.5008 C.ar    1  UNL1       -0.0042
     46 C          67.6009   95.6714    7.9917 C.ar    1  UNL1       -0.0003
     47 C          67.2242   96.8556    8.8317 C.ar    1  UNL1       -0.0000
     48 C          66.6015   96.6506   10.1808 C.ar    1  UNL1       -0.0003
     49 C          66.3555   95.2613   10.6899 C.ar    1  UNL1       -0.0042
@<TRIPOS>BOND
     1    19    20    1
     2    20    21    1
     3    20     6    1
     4     6     7    1
     5     7     8   am
     6     8     9    2
     7     8    10   am
     8    10    11    1
     9    10    13    1
    10    13    14    1
    11    14    15   ar
    12    15    16   ar
    13    16    17   ar
    14    17    18   ar
    15     6     2    1
    16     2     3    2
    17     2     4   am
    18     4     1    1
    19     1    29    1
    20    29    30    1
    21    31    30    1
    22    31    43    1
    23    43    44    1
    24    44    45   ar
    25    45    46   ar
    26    46    47   ar
    27    47    48   ar
    28    48    49   ar
    29    31    32    1
    30    32    33   am
    31    33    34    2
    32    33    36    1
    33    36    37    1
    34    37    38    1
    35    38    39   ar
    36    39    40   ar
    37    40    41   ar
    38    41    42   ar
    39     1    22    1
    40    22    23    1
    41    23    24   ar
    42    24    25   ar
    43    25    26   ar
    44    26    27   ar
    45    27    28   ar
    46    18    14   ar
    47    49    44   ar
    48    42    38   ar
    49    28    23   ar
    50     7    12    1
    51     4     5    1
    52    32    35    1
@<TRIPOS>MOLECULE
*****
 49 52 0 0 0
SMALL
GASTEIGER

@<TRIPOS>ATOM
      1 C          62.2188   89.4919   10.3140 C.3     1  UNL1        0.0760
      2 C          61.9154   87.0556   11.1641 C.2     1  UNL1        0.2403
      3 O          60.5522   87.4061   11.6823 O.2     1  UNL1       -0.2733
      4 N          62.7488   88.0985   10.4799 N.am    1  UNL1       -0.3043
      5 H          63.6435   87.8684   10.1398 H       1  UNL1        0.1494
      6 C          62.4454   85.6622   11.3300 C.3     1  UNL1        0.1496
      7 N          62.4031   84.9988   12.6747 N.am    1  UNL1       -0.2824
      8 C          63.1940   85.5662   13.8161 C.2     1  UNL1        0.3046
      9 O          64.0271   86.7970   13.6127 O.2     1  UNL1       -0.2526
     10 N          63.1517   84.9029   15.1607 N.am    1  UNL1       -0.2578
     11 C          63.9425   85.4703   16.3021 C.3     1  UNL1        0.1168
     12 H          61.8564   84.1911   12.8082 H       1  UNL1        0.1514
     13 C          62.3186   83.6723   15.3641 C.3     1  UNL1        0.1297
     14 C          62.5789   82.4458   14.5405 C.ar    1  UNL1        0.0479
     15 C          63.8898   82.0617   13.9209 C.ar    1  UNL1        0.1033
     16 N          63.6951   80.7667   13.1894 N.ar    1  UNL1       -0.2350
     17 C          62.2637   80.3505   13.3569 C.ar    1  UNL1        0.1343
     18 S          61.5739   81.3883   14.1919 S.2     1  UNL1       -0.0671
     19 C          62.8049   85.4632    8.7646 C.3     1  UNL1        0.0022
     20 C          63.0177   84.9321   10.1512 C.3     1  UNL1        0.0270
     21 C          63.8027   83.6710   10.3591 C.3     1  UNL1        0.0022
     22 C          60.7519   89.7150   10.0936 C.3     1  UNL1        0.0459
     23 C          60.0746   89.1203    8.8946 C.ar    1  UNL1       -0.0205
     24 C          59.6182   87.6918    8.9227 C.ar    1  UNL1       -0.0042
     25 C          58.9409   87.0971    7.7236 C.ar    1  UNL1       -0.0003
     26 C          58.7201   87.9309    6.4965 C.ar    1  UNL1       -0.0000
     27 C          59.1766   89.3596    6.4684 C.ar    1  UNL1       -0.0003
     28 C          59.8538   89.9543    7.6674 C.ar    1  UNL1       -0.0042
     29 C          63.1556   90.6621   10.3685 C.3     1  UNL1        0.0216
     30 C          63.6390   91.1747   11.6926 C.3     1  UNL1        0.0217
     31 C          65.0345   91.7083   11.8262 C.3     1  UNL1        0.0792
     32 N          65.7391   92.2735   10.6286 N.am    1  UNL1       -0.2720
     33 C          67.2279   92.4559   10.6512 C.2     1  UNL1        0.4019
     34 O          68.0120   92.0731   11.8713 O.2     1  UNL1       -0.2264
     35 H          65.2245   92.5247    9.8278 H       1  UNL1        0.1527
     36 O          67.9325   93.0210    9.4536 O.3     1  UNL1       -0.4291
     37 C          68.1239   94.5032    9.3263 C.3     1  UNL1        0.2447
     38 C          66.9398   95.4212    9.3969 C.ar    1  UNL1        0.0714
     39 C          66.1769   95.9679    8.2267 C.ar    1  UNL1        0.1053
     40 N          65.0762   96.8383    8.7567 N.ar    1  UNL1       -0.2350
     41 C          65.1587   96.8296   10.2544 C.ar    1  UNL1        0.1343
     42 S          66.3105   95.9538   10.6500 S.2     1  UNL1       -0.0652
     43 C          65.7254   91.6769   13.1572 C.3     1  UNL1        0.0460
     44 C          64.9799   91.2273   14.3787 C.ar    1  UNL1       -0.0205
     45 C          64.3412   89.8705   14.4106 C.ar    1  UNL1       -0.0042
     46 C          63.5958   89.4209   15.6321 C.ar    1  UNL1       -0.0003
     47 C          63.4889   90.3283   16.8218 C.ar    1  UNL1       -0.0000
     48 C          64.1276   91.6851   16.7900 C.ar    1  UNL1       -0.0003
     49 C          64.8731   92.1346   15.5684 C.ar    1  UNL1       -0.0042
@<TRIPOS>BOND
     1    19    20    1
     2    20    21    1
     3    20     6    1
     4     6     7    1
     5     7     8   am
     6     8     9    2
     7     8    10   am
     8    10    11    1
     9    10    13    1
    10    13    14    1
    11    14    15   ar
    12    15    16   ar
    13    16    17   ar
    14    17    18   ar
    15     6     2    1
    16     2     3    2
    17     2     4   am
    18     4     1    1
    19     1    29    1
    20    29    30    1
    21    31    30    1
    22    31    43    1
    23    43    44    1
    24    44    45   ar
    25    45    46   ar
    26    46    47   ar
    27    47    48   ar
    28    48    49   ar
    29    31    32    1
    30    32    33   am
    31    33    34    2
    32    33    36    1
    33    36    37    1
    34    37    38    1
    35    38    39   ar
    36    39    40   ar
    37    40    41   ar
    38    41    42   ar
    39     1    22    1
    40    22    23    1
    41    23    24   ar
    42    24    25   ar
    43    25    26   ar
    44    26    27   ar
    45    27    28   ar
    46    18    14   ar
    47    49    44   ar
    48    42    38   ar
    49    28    23   ar
    50     7    12    1
    51     4     5    1
    52    32    35    1
@<TRIPOS>MOLECULE
*****
 49 52 0 0 0
SMALL
GASTEIGER

@<TRIPOS>ATOM
      1 C          64.0583   88.3531   13.8356 C.3     1  UNL1        0.0760
      2 C          64.7911   90.8184   14.2035 C.2     1  UNL1        0.2403
      3 O          63.5132   91.0882   14.9412 O.2     1  UNL1       -0.2733
      4 N          65.0637   89.4508   13.6507 N.am    1  UNL1       -0.3043
      5 H          65.9024   89.2738   13.1666 H       1  UNL1        0.1494
      6 C          65.7964   91.9162   14.0187 C.3     1  UNL1        0.1496
      7 N          65.8055   92.7193   12.7518 N.am    1  UNL1       -0.2824
      8 C          66.0643   94.1960   12.8018 C.2     1  UNL1        0.3046
      9 O          66.3140   94.8695   14.1187 O.2     1  UNL1       -0.2526
     10 N          66.0734   94.9991   11.5350 N.am    1  UNL1       -0.2578
     11 C          66.3321   96.4758   11.5850 C.3     1  UNL1        0.1168
     12 H          65.6416   92.2773   11.8875 H       1  UNL1        0.1514
     13 C          65.8237   94.3256   10.2182 C.3     1  UNL1        0.1297
     14 C          66.9596   93.6878    9.4747 C.ar    1  UNL1        0.0479
     15 C          67.5609   94.1805    8.1918 C.ar    1  UNL1        0.1033
     16 N          68.6666   93.2425    7.8078 N.ar    1  UNL1       -0.2350
     17 C          68.7488   92.1700    8.8533 C.ar    1  UNL1        0.1343
     18 S          67.6938   92.4452    9.8835 S.2     1  UNL1       -0.0671
     19 C          68.2620   92.1282   14.8100 C.3     1  UNL1        0.0022
     20 C          66.7927   92.2108   15.1006 C.3     1  UNL1        0.0270
     21 C          66.3197   92.5880   16.4732 C.3     1  UNL1        0.0022
     22 C          63.9033   87.6958   15.1751 C.3     1  UNL1        0.0459
     23 C          63.9349   86.2002   15.2847 C.ar    1  UNL1       -0.0205
     24 C          62.8042   85.4728   15.9499 C.ar    1  UNL1       -0.0042
     25 C          62.8358   83.9772   16.0595 C.ar    1  UNL1       -0.0003
     26 C          63.9981   83.2089   15.5040 C.ar    1  UNL1       -0.0000
     27 C          65.1289   83.9362   14.8389 C.ar    1  UNL1       -0.0003
     28 C          65.0973   85.4318   14.7292 C.ar    1  UNL1       -0.0042
     29 C          63.2080   87.9126   12.6811 C.3     1  UNL1        0.0216
     30 C          62.8928   86.4581   12.4939 C.3     1  UNL1        0.0217
     31 C          62.3596   85.9693   11.1797 C.3     1  UNL1        0.0792
     32 N          61.2433   86.7074   10.5021 N.am    1  UNL1       -0.2720
     33 C          61.1728   86.7498    9.0043 C.2     1  UNL1        0.4019
     34 O          62.2185   86.0542    8.1842 O.2     1  UNL1       -0.2264
     35 H          60.5570   87.1640   11.0404 H       1  UNL1        0.1527
     36 O          60.0565   87.4879    8.3267 O.3     1  UNL1       -0.4291
     37 C          59.9512   88.9779    8.4630 C.3     1  UNL1        0.2447
     38 C          60.6030   89.6731    9.6214 C.ar    1  UNL1        0.0714
     39 C          62.0232   90.1527    9.6761 C.ar    1  UNL1        0.1053
     40 N          62.2471   90.7867   11.0169 N.ar    1  UNL1       -0.2350
     41 C          60.9653   90.6989   11.7910 C.ar    1  UNL1        0.1343
     42 S          59.9492   90.0107   10.9285 S.2     1  UNL1       -0.0652
     43 C          62.9426   84.7426   10.5433 C.3     1  UNL1        0.0460
     44 C          63.1293   83.4940   11.3534 C.ar    1  UNL1       -0.0205
     45 C          64.4586   82.7992   11.3649 C.ar    1  UNL1       -0.0042
     46 C          64.6453   81.5506   12.1750 C.ar    1  UNL1       -0.0003
     47 C          63.5027   80.9969   12.9736 C.ar    1  UNL1       -0.0000
     48 C          62.1734   81.6917   12.9621 C.ar    1  UNL1       -0.0003
     49 C          61.9867   82.9402   12.1520 C.ar    1  UNL1       -0.0042
@<TRIPOS>BOND
     1    19    20    1
     2    20    21    1
     3    20     6    1
     4     6     7    1
     5     7     8   am
     6     8     9    2
     7     8    10   am
     8    10    11    1
     9    10    13    1
    10    13    14    1
    11    14    15   ar
    12    15    16   ar
    13    16    17   ar
    14    17    18   ar
    15     6     2    1
    16     2     3    2
    17     2     4   am
    18     4     1    1
    19     1    29    1
    20    29    30    1
    21    31    30    1
    22    31    43    1
    23    43    44    1
    24    44    45   ar
    25    45    46   ar
    26    46    47   ar
    27    47    48   ar
    28    48    49   ar
    29    31    32    1
    30    32    33   am
    31    33    34    2
    32    33    36    1
    33    36    37    1
    34    37    38    1
    35    38    39   ar
    36    39    40   ar
    37    40    41   ar
    38    41    42   ar
    39     1    22    1
    40    22    23    1
    41    23    24   ar
    42    24    25   ar
    43    25    26   ar
    44    26    27   ar
    45    27    28   ar
    46    18    14   ar
    47    49    44   ar
    48    42    38   ar
    49    28    23   ar
    50     7    12    1
    51     4     5    1
    52    32    35    1
