@<TRIPOS>MOLECULE
*****
 31 34 0 0 0
SMALL
GASTEIGER

@<TRIPOS>ATOM
      1 C          64.8275   90.9362   13.8177 C.ar    1  UNL1       -0.0110
      2 C          64.1009   91.2611   12.5463 C.ar    1  UNL1       -0.0033
      3 C          63.2655   90.2139   11.8714 C.ar    1  UNL1        0.0042
      4 C          63.1567   88.8419   12.4678 C.ar    1  UNL1        0.0533
      5 C          63.8833   88.5171   13.7392 C.ar    1  UNL1        0.0042
      6 C          64.7187   89.5642   14.4141 C.ar    1  UNL1       -0.0033
      7 C          62.3212   87.7948   11.7928 C.2     1  UNL1        0.2461
      8 O          62.4263   86.3609   12.2206 O.2     1  UNL1       -0.2701
      9 N          61.3808   88.1815   10.6902 N.am    1  UNL1       -0.2969
     10 H          61.3119   89.1226   10.4094 H       1  UNL1        0.1501
     11 C          60.5454   87.1344   10.0152 C.3     1  UNL1        0.1166
     12 C          61.1322   86.3016    8.9142 C.ar    1  UNL1       -0.0026
     13 C          62.5482   85.8168    9.0136 C.ar    1  UNL1       -0.0026
     14 C          63.1349   84.9841    7.9126 C.ar    1  UNL1       -0.0003
     15 C          62.3056   84.6361    6.7121 C.ar    1  UNL1       -0.0000
     16 C          60.8896   85.1208    6.6126 C.ar    1  UNL1       -0.0003
     17 C          60.3029   85.9536    7.7137 C.ar    1  UNL1       -0.0026
     18 C          65.6629   91.9834   14.4927 C.3     1  UNL1        0.0884
     19 S          66.9943   92.3662   13.9176 S.3     1  UNL1       -0.1088
     20 N          66.1816   96.8499    7.5255 N.pl3   1  UNL1       -0.3375
     21 C          66.4759   95.8139    8.5695 C.ar    1  UNL1        0.1567
     22 N          67.2148   94.5269    8.3509 N.ar    1  UNL1       -0.2245
     23 C          67.2786   93.8006    9.6618 C.ar    1  UNL1        0.0893
     24 C          67.8833   92.4844   10.0516 C.ar    1  UNL1        0.0202
     25 C          67.7885   92.0063   11.4701 C.ar    1  UNL1        0.0077
     26 C          67.0891   92.8444   12.4989 C.ar    1  UNL1        0.0261
     27 C          66.4845   94.1606   12.1092 C.ar    1  UNL1        0.0142
     28 C          66.5792   94.6387   10.6906 C.ar    1  UNL1        0.0502
     29 S          66.0832   95.8830   10.0155 S.2     1  UNL1       -0.0520
     30 H          66.4825   96.7135    6.5981 H       1  UNL1        0.1442
     31 H          65.6874   97.6662    7.7676 H       1  UNL1        0.1442
@<TRIPOS>BOND
     1    20    21    1
     2    21    22   ar
     3    22    23   ar
     4    23    24   ar
     5    24    25   ar
     6    25    26   ar
     7    26    19    1
     8    19    18    1
     9    18     1    1
    10     1     2   ar
    11     2     3   ar
    12     3     4   ar
    13     4     7    1
    14     7     8    2
    15     7     9   am
    16     9    11    1
    17    11    12    1
    18    12    13   ar
    19    13    14   ar
    20    14    15   ar
    21    15    16   ar
    22    16    17   ar
    23     4     5   ar
    24     5     6   ar
    25    26    27   ar
    26    27    28   ar
    27    28    29   ar
    28    29    21   ar
    29    28    23   ar
    30     6     1   ar
    31    17    12   ar
    32    20    30    1
    33    20    31    1
    34     9    10    1
@<TRIPOS>MOLECULE
*****
 31 34 0 0 0
SMALL
GASTEIGER

@<TRIPOS>ATOM
      1 C          64.0852   90.2124   15.6955 C.ar    1  UNL1       -0.0110
      2 C          64.6225   89.3704   14.5765 C.ar    1  UNL1       -0.0033
      3 C          64.3910   87.8884   14.5752 C.ar    1  UNL1        0.0042
      4 C          63.6223   87.2484   15.6929 C.ar    1  UNL1        0.0533
      5 C          63.0850   88.0903   16.8120 C.ar    1  UNL1        0.0042
      6 C          63.3165   89.5723   16.8133 C.ar    1  UNL1       -0.0033
      7 C          63.3908   85.7663   15.6916 C.2     1  UNL1        0.2461
      8 O          62.1303   85.2035   16.2784 O.2     1  UNL1       -0.2701
      9 N          64.4199   84.8470   15.1033 N.am    1  UNL1       -0.2969
     10 H          65.2472   85.2164   14.7181 H       1  UNL1        0.1501
     11 C          64.1884   83.3650   15.1020 C.3     1  UNL1        0.1166
     12 C          63.8273   82.6635   13.8263 C.ar    1  UNL1       -0.0026
     13 C          64.2302   83.2521   12.5067 C.ar    1  UNL1       -0.0026
     14 C          63.8691   82.5505   11.2310 C.ar    1  UNL1       -0.0003
     15 C          63.1051   81.2604   11.2748 C.ar    1  UNL1       -0.0000
     16 C          62.7022   80.6718   12.5944 C.ar    1  UNL1       -0.0003
     17 C          63.0633   81.3734   13.8701 C.ar    1  UNL1       -0.0026
     18 C          64.3166   91.6945   15.6969 C.3     1  UNL1        0.0884
     19 S          65.7096   92.2361   15.5701 S.3     1  UNL1       -0.1088
     20 N          67.0154   94.6250    8.2073 N.pl3   1  UNL1       -0.3375
     21 C          67.0012   94.0075    9.5742 C.ar    1  UNL1        0.1567
     22 N          67.9902   93.0107   10.1016 N.ar    1  UNL1       -0.2245
     23 C          67.5958   92.6654   11.5071 C.ar    1  UNL1        0.0893
     24 C          68.1999   91.7389   12.5203 C.ar    1  UNL1        0.0202
     25 C          67.5712   91.5958   13.8746 C.ar    1  UNL1        0.0077
     26 C          66.3383   92.3793   14.2157 C.ar    1  UNL1        0.0261
     27 C          65.7342   93.3058   13.2025 C.ar    1  UNL1        0.0142
     28 C          66.3629   93.4488   11.8482 C.ar    1  UNL1        0.0502
     29 S          65.9955   94.2783   10.6536 S.2     1  UNL1       -0.0520
     30 H          67.7208   94.3824    7.5648 H       1  UNL1        0.1442
     31 H          66.3193   95.2730    7.9526 H       1  UNL1        0.1442
@<TRIPOS>BOND
     1    20    21    1
     2    21    22   ar
     3    22    23   ar
     4    23    24   ar
     5    24    25   ar
     6    25    26   ar
     7    26    19    1
     8    19    18    1
     9    18     1    1
    10     1     2   ar
    11     2     3   ar
    12     3     4   ar
    13     4     7    1
    14     7     8    2
    15     7     9   am
    16     9    11    1
    17    11    12    1
    18    12    13   ar
    19    13    14   ar
    20    14    15   ar
    21    15    16   ar
    22    16    17   ar
    23     4     5   ar
    24     5     6   ar
    25    26    27   ar
    26    27    28   ar
    27    28    29   ar
    28    29    21   ar
    29    28    23   ar
    30     6     1   ar
    31    17    12   ar
    32    20    30    1
    33    20    31    1
    34     9    10    1
@<TRIPOS>MOLECULE
*****
 31 34 0 0 0
SMALL
GASTEIGER

@<TRIPOS>ATOM
      1 C          64.6558   90.8699   14.3689 C.ar    1  UNL1       -0.0110
      2 C          63.9258   91.1131   13.0813 C.ar    1  UNL1       -0.0033
      3 C          63.3524   89.9584   12.3147 C.ar    1  UNL1        0.0042
      4 C          63.5090   88.5605   12.8356 C.ar    1  UNL1        0.0533
      5 C          64.2390   88.3173   14.1231 C.ar    1  UNL1        0.0042
      6 C          64.8124   89.4720   14.8898 C.ar    1  UNL1       -0.0033
      7 C          62.9356   87.4057   12.0688 C.2     1  UNL1        0.2461
      8 O          62.1637   87.6529   10.8066 O.2     1  UNL1       -0.2701
      9 N          63.1340   86.0039   12.5643 N.am    1  UNL1       -0.2969
     10 H          63.6405   85.8417   13.3928 H       1  UNL1        0.1501
     11 C          62.5605   84.8493   11.7976 C.3     1  UNL1        0.1166
     12 C          62.5920   83.4693   12.3849 C.ar    1  UNL1       -0.0026
     13 C          62.8608   82.2853   11.5041 C.ar    1  UNL1       -0.0026
     14 C          62.8922   80.9054   12.0913 C.ar    1  UNL1       -0.0003
     15 C          62.6548   80.7095   13.5594 C.ar    1  UNL1       -0.0000
     16 C          62.3860   81.8935   14.4402 C.ar    1  UNL1       -0.0003
     17 C          62.3546   83.2734   13.8529 C.ar    1  UNL1       -0.0026
     18 C          65.2292   92.0246   15.1356 C.3     1  UNL1        0.0884
     19 S          66.5071   92.6657   14.6818 S.3     1  UNL1       -0.1088
     20 N          66.3003   96.2330    7.6922 N.pl3   1  UNL1       -0.3375
     21 C          66.4918   95.3497    8.8893 C.ar    1  UNL1        0.1567
     22 N          67.2327   94.0457    8.9134 N.ar    1  UNL1       -0.2245
     23 C          67.1748   93.5054   10.3115 C.ar    1  UNL1        0.0893
     24 C          67.7290   92.2554   10.9283 C.ar    1  UNL1        0.0202
     25 C          67.5064   91.9755   12.3850 C.ar    1  UNL1        0.0077
     26 C          66.7297   92.9456   13.2250 C.ar    1  UNL1        0.0261
     27 C          66.1755   94.1956   12.6083 C.ar    1  UNL1        0.0142
     28 C          66.3981   94.4755   11.1515 C.ar    1  UNL1        0.0502
     29 S          65.9760   95.6153   10.2725 S.2     1  UNL1       -0.0520
     30 H          66.6790   95.9714    6.8219 H       1  UNL1        0.1442
     31 H          65.7960   97.0743    7.7768 H       1  UNL1        0.1442
@<TRIPOS>BOND
     1    20    21    1
     2    21    22   ar
     3    22    23   ar
     4    23    24   ar
     5    24    25   ar
     6    25    26   ar
     7    26    19    1
     8    19    18    1
     9    18     1    1
    10     1     2   ar
    11     2     3   ar
    12     3     4   ar
    13     4     7    1
    14     7     8    2
    15     7     9   am
    16     9    11    1
    17    11    12    1
    18    12    13   ar
    19    13    14   ar
    20    14    15   ar
    21    15    16   ar
    22    16    17   ar
    23     4     5   ar
    24     5     6   ar
    25    26    27   ar
    26    27    28   ar
    27    28    29   ar
    28    29    21   ar
    29    28    23   ar
    30     6     1   ar
    31    17    12   ar
    32    20    30    1
    33    20    31    1
    34     9    10    1
@<TRIPOS>MOLECULE
*****
 31 34 0 0 0
SMALL
GASTEIGER

@<TRIPOS>ATOM
      1 C          61.0298   89.1191   10.6916 C.ar    1  UNL1       -0.0110
      2 C          61.7733   88.8951   11.9749 C.ar    1  UNL1       -0.0033
      3 C          62.9368   89.7725   12.3305 C.ar    1  UNL1        0.0042
      4 C          63.3568   90.8738   11.4028 C.ar    1  UNL1        0.0533
      5 C          62.6132   91.0978   10.1195 C.ar    1  UNL1        0.0042
      6 C          61.4498   90.2205    9.7639 C.ar    1  UNL1       -0.0033
      7 C          64.5203   91.7512   11.7585 C.2     1  UNL1        0.2461
      8 O          64.5861   92.3982   13.1102 O.2     1  UNL1       -0.2701
      9 N          65.6180   91.9815   10.7625 N.am    1  UNL1       -0.2969
     10 H          65.5748   91.5569    9.8754 H       1  UNL1        0.1501
     11 C          66.7815   92.8589   11.1182 C.3     1  UNL1        0.1166
     12 C          66.9481   94.1912   10.4495 C.ar    1  UNL1       -0.0026
     13 C          67.5939   94.2767    9.0984 C.ar    1  UNL1       -0.0026
     14 C          67.7606   95.6090    8.4297 C.ar    1  UNL1       -0.0003
     15 C          67.2815   96.8559    9.1122 C.ar    1  UNL1       -0.0000
     16 C          66.6357   96.7705   10.4633 C.ar    1  UNL1       -0.0003
     17 C          66.4690   95.4381   11.1320 C.ar    1  UNL1       -0.0026
     18 C          59.8663   88.2417   10.3359 C.3     1  UNL1        0.0884
     19 S          60.0370   87.1396    9.3329 S.3     1  UNL1       -0.1088
     20 N          65.0972   82.0479   12.5097 N.pl3   1  UNL1       -0.3375
     21 C          64.2763   82.9715   11.6594 C.ar    1  UNL1        0.1567
     22 N          64.4758   83.2336   10.1960 N.ar    1  UNL1       -0.2245
     23 C          63.4345   84.2193    9.7554 C.ar    1  UNL1        0.0893
     24 C          63.1451   84.8455    8.4235 C.ar    1  UNL1        0.0202
     25 C          62.0127   85.8190    8.2827 C.ar    1  UNL1        0.0077
     26 C          61.1696   86.1661    9.4738 C.ar    1  UNL1        0.0261
     27 C          61.4589   85.5398   10.8057 C.ar    1  UNL1        0.0142
     28 C          62.5914   84.5664   10.9465 C.ar    1  UNL1        0.0502
     29 S          63.1117   83.7953   12.1232 S.2     1  UNL1       -0.0520
     30 H          65.8458   81.5475   12.1117 H       1  UNL1        0.1442
     31 H          64.8874   81.9421   13.4657 H       1  UNL1        0.1442
@<TRIPOS>BOND
     1    20    21    1
     2    21    22   ar
     3    22    23   ar
     4    23    24   ar
     5    24    25   ar
     6    25    26   ar
     7    26    19    1
     8    19    18    1
     9    18     1    1
    10     1     2   ar
    11     2     3   ar
    12     3     4   ar
    13     4     7    1
    14     7     8    2
    15     7     9   am
    16     9    11    1
    17    11    12    1
    18    12    13   ar
    19    13    14   ar
    20    14    15   ar
    21    15    16   ar
    22    16    17   ar
    23     4     5   ar
    24     5     6   ar
    25    26    27   ar
    26    27    28   ar
    27    28    29   ar
    28    29    21   ar
    29    28    23   ar
    30     6     1   ar
    31    17    12   ar
    32    20    30    1
    33    20    31    1
    34     9    10    1
@<TRIPOS>MOLECULE
*****
 31 34 0 0 0
SMALL
GASTEIGER

@<TRIPOS>ATOM
      1 C          60.8819   89.1549   10.0978 C.ar    1  UNL1       -0.0110
      2 C          62.3644   89.3829   10.0892 C.ar    1  UNL1       -0.0033
      3 C          63.0741   89.7497   11.3587 C.ar    1  UNL1        0.0042
      4 C          62.3014   89.8886   12.6368 C.ar    1  UNL1        0.0533
      5 C          60.8189   89.6606   12.6454 C.ar    1  UNL1        0.0042
      6 C          60.1091   89.2938   11.3759 C.ar    1  UNL1       -0.0033
      7 C          63.0112   90.2554   13.9063 C.2     1  UNL1        0.2461
      8 O          62.5601   89.6731   15.2130 O.2     1  UNL1       -0.2701
      9 N          64.1721   91.2046   13.8691 N.am    1  UNL1       -0.2969
     10 H          64.4682   91.5868   13.0115 H       1  UNL1        0.1501
     11 C          64.8819   91.5714   15.1386 C.3     1  UNL1        0.1166
     12 C          66.3227   91.9870   15.0992 C.ar    1  UNL1       -0.0026
     13 C          66.9203   92.7319   16.2559 C.ar    1  UNL1       -0.0026
     14 C          68.3610   93.1476   16.2165 C.ar    1  UNL1       -0.0003
     15 C          69.2042   92.8183   15.0204 C.ar    1  UNL1       -0.0000
     16 C          68.6066   92.0733   13.8637 C.ar    1  UNL1       -0.0003
     17 C          67.1658   91.6577   13.9031 C.ar    1  UNL1       -0.0026
     18 C          60.1720   88.7881    8.8283 C.3     1  UNL1        0.0884
     19 S          59.9971   87.3454    8.4568 S.3     1  UNL1       -0.1088
     20 N          64.6817   82.6079   12.6081 N.pl3   1  UNL1       -0.3375
     21 C          63.9335   83.4138   11.5880 C.ar    1  UNL1        0.1567
     22 N          64.1742   83.4044   10.1075 N.ar    1  UNL1       -0.2245
     23 C          63.2027   84.3555    9.4738 C.ar    1  UNL1        0.0893
     24 C          62.9753   84.7548    8.0459 C.ar    1  UNL1        0.0202
     25 C          61.9068   85.7514    7.7069 C.ar    1  UNL1        0.0077
     26 C          61.0657   86.3487    8.7958 C.ar    1  UNL1        0.0261
     27 C          61.2930   85.9494   10.2237 C.ar    1  UNL1        0.0142
     28 C          62.3615   84.9528   10.5626 C.ar    1  UNL1        0.0502
     29 S          62.8132   84.3708   11.8693 S.2     1  UNL1       -0.0520
     30 H          65.4054   82.0039   12.3239 H       1  UNL1        0.1442
     31 H          64.4491   82.6829   13.5618 H       1  UNL1        0.1442
@<TRIPOS>BOND
     1    20    21    1
     2    21    22   ar
     3    22    23   ar
     4    23    24   ar
     5    24    25   ar
     6    25    26   ar
     7    26    19    1
     8    19    18    1
     9    18     1    1
    10     1     2   ar
    11     2     3   ar
    12     3     4   ar
    13     4     7    1
    14     7     8    2
    15     7     9   am
    16     9    11    1
    17    11    12    1
    18    12    13   ar
    19    13    14   ar
    20    14    15   ar
    21    15    16   ar
    22    16    17   ar
    23     4     5   ar
    24     5     6   ar
    25    26    27   ar
    26    27    28   ar
    27    28    29   ar
    28    29    21   ar
    29    28    23   ar
    30     6     1   ar
    31    17    12   ar
    32    20    30    1
    33    20    31    1
    34     9    10    1
@<TRIPOS>MOLECULE
*****
 31 34 0 0 0
SMALL
GASTEIGER

@<TRIPOS>ATOM
      1 C          61.6785   88.5702   10.2162 C.ar    1  UNL1       -0.0110
      2 C          62.2730   88.2684   11.5598 C.ar    1  UNL1       -0.0033
      3 C          63.1161   89.2960   12.2548 C.ar    1  UNL1        0.0042
      4 C          63.3647   90.6255   11.6061 C.ar    1  UNL1        0.0533
      5 C          62.7702   90.9273   10.2625 C.ar    1  UNL1        0.0042
      6 C          61.9271   89.8997    9.5675 C.ar    1  UNL1       -0.0033
      7 C          64.2079   91.6531   12.3012 C.2     1  UNL1        0.2461
      8 O          64.1076   91.8246   13.7880 O.2     1  UNL1       -0.2701
      9 N          65.1514   92.5093   11.5095 N.am    1  UNL1       -0.2969
     10 H          65.2172   92.3968   10.5337 H       1  UNL1        0.1501
     11 C          65.9945   93.5369   12.2045 C.3     1  UNL1        0.1166
     12 C          66.8574   93.1387   13.3652 C.ar    1  UNL1       -0.0026
     13 C          66.7353   93.8622   14.6735 C.ar    1  UNL1       -0.0026
     14 C          67.5981   93.4640   15.8340 C.ar    1  UNL1       -0.0003
     15 C          68.5830   92.3423   15.6864 C.ar    1  UNL1       -0.0000
     16 C          68.7051   91.6188   14.3781 C.ar    1  UNL1       -0.0003
     17 C          67.8422   92.0170   13.2175 C.ar    1  UNL1       -0.0026
     18 C          60.8353   87.5426    9.5211 C.3     1  UNL1        0.0884
     19 S          61.4795   86.3373    8.9030 S.3     1  UNL1       -0.1088
     20 N          64.0933   82.4718   15.2156 N.pl3   1  UNL1       -0.3375
     21 C          63.7776   83.0423   13.8648 C.ar    1  UNL1        0.1567
     22 N          64.3945   82.6216   12.5639 N.ar    1  UNL1       -0.2245
     23 C          63.7877   83.4530   11.4727 C.ar    1  UNL1        0.0893
     24 C          64.0102   83.4798    9.9896 C.ar    1  UNL1        0.0202
     25 C          63.2408   84.4412    9.1331 C.ar    1  UNL1        0.0077
     26 C          62.2489   85.3758    9.7596 C.ar    1  UNL1        0.0261
     27 C          62.0264   85.3490   11.2428 C.ar    1  UNL1        0.0142
     28 C          62.7957   84.3876   12.0993 C.ar    1  UNL1        0.0502
     29 S          62.7895   84.1338   13.5777 S.2     1  UNL1       -0.0520
     30 H          64.7607   81.7533   15.3028 H       1  UNL1        0.1442
     31 H          63.6331   82.8158   16.0151 H       1  UNL1        0.1442
@<TRIPOS>BOND
     1    20    21    1
     2    21    22   ar
     3    22    23   ar
     4    23    24   ar
     5    24    25   ar
     6    25    26   ar
     7    26    19    1
     8    19    18    1
     9    18     1    1
    10     1     2   ar
    11     2     3   ar
    12     3     4   ar
    13     4     7    1
    14     7     8    2
    15     7     9   am
    16     9    11    1
    17    11    12    1
    18    12    13   ar
    19    13    14   ar
    20    14    15   ar
    21    15    16   ar
    22    16    17   ar
    23     4     5   ar
    24     5     6   ar
    25    26    27   ar
    26    27    28   ar
    27    28    29   ar
    28    29    21   ar
    29    28    23   ar
    30     6     1   ar
    31    17    12   ar
    32    20    30    1
    33    20    31    1
    34     9    10    1
@<TRIPOS>MOLECULE
*****
 31 34 0 0 0
SMALL
GASTEIGER

@<TRIPOS>ATOM
      1 C          64.2745   90.0586   13.7975 C.ar    1  UNL1       -0.0110
      2 C          63.6799   89.3620   12.6097 C.ar    1  UNL1       -0.0033
      3 C          63.4528   87.8797   12.6457 C.ar    1  UNL1        0.0042
      4 C          63.8203   87.0941   13.8695 C.ar    1  UNL1        0.0533
      5 C          64.4150   87.7908   15.0573 C.ar    1  UNL1        0.0042
      6 C          64.6421   89.2730   15.0213 C.ar    1  UNL1       -0.0033
      7 C          63.5932   85.6118   13.9055 C.2     1  UNL1        0.2461
      8 O          62.2099   85.0605   13.7254 O.2     1  UNL1       -0.2701
      9 N          64.7494   84.6809   14.1214 N.am    1  UNL1       -0.2969
     10 H          65.6573   85.0428   14.2396 H       1  UNL1        0.1501
     11 C          64.5222   83.1987   14.1574 C.3     1  UNL1        0.1166
     12 C          64.0756   82.4781   12.9199 C.ar    1  UNL1       -0.0026
     13 C          63.2461   81.2337   13.0348 C.ar    1  UNL1       -0.0026
     14 C          62.7994   80.5131   11.7974 C.ar    1  UNL1       -0.0003
     15 C          63.1823   81.0370   10.4449 C.ar    1  UNL1       -0.0000
     16 C          64.0118   82.2815   10.3300 C.ar    1  UNL1       -0.0003
     17 C          64.4584   83.0020   11.5675 C.ar    1  UNL1       -0.0026
     18 C          64.5017   91.5409   13.7615 C.3     1  UNL1        0.0884
     19 S          65.8992   92.0856   13.7551 S.3     1  UNL1       -0.1088
     20 N          67.4530   96.8554    7.7170 N.pl3   1  UNL1       -0.3375
     21 C          67.3443   95.7670    8.7435 C.ar    1  UNL1        0.1567
     22 N          68.0855   94.4630    8.7279 N.ar    1  UNL1       -0.2245
     23 C          67.6745   93.6816    9.9405 C.ar    1  UNL1        0.0893
     24 C          68.0780   92.3286   10.4469 C.ar    1  UNL1        0.0202
     25 C          67.4862   91.7966   11.7184 C.ar    1  UNL1        0.0077
     26 C          66.4910   92.6177   12.4835 C.ar    1  UNL1        0.0261
     27 C          66.0876   93.9707   11.9772 C.ar    1  UNL1        0.0142
     28 C          66.6794   94.5027   10.7057 C.ar    1  UNL1        0.0502
     29 S          66.4753   95.7915    9.9659 S.2     1  UNL1       -0.0520
     30 H          68.0544   96.7458    6.9453 H       1  UNL1        0.1442
     31 H          66.9231   97.6792    7.8151 H       1  UNL1        0.1442
@<TRIPOS>BOND
     1    20    21    1
     2    21    22   ar
     3    22    23   ar
     4    23    24   ar
     5    24    25   ar
     6    25    26   ar
     7    26    19    1
     8    19    18    1
     9    18     1    1
    10     1     2   ar
    11     2     3   ar
    12     3     4   ar
    13     4     7    1
    14     7     8    2
    15     7     9   am
    16     9    11    1
    17    11    12    1
    18    12    13   ar
    19    13    14   ar
    20    14    15   ar
    21    15    16   ar
    22    16    17   ar
    23     4     5   ar
    24     5     6   ar
    25    26    27   ar
    26    27    28   ar
    27    28    29   ar
    28    29    21   ar
    29    28    23   ar
    30     6     1   ar
    31    17    12   ar
    32    20    30    1
    33    20    31    1
    34     9    10    1
@<TRIPOS>MOLECULE
*****
 31 34 0 0 0
SMALL
GASTEIGER

@<TRIPOS>ATOM
      1 C          63.6543   88.3956   16.0985 C.ar    1  UNL1       -0.0110
      2 C          64.2581   87.8466   14.8399 C.ar    1  UNL1       -0.0033
      3 C          64.1697   86.3787   14.5440 C.ar    1  UNL1        0.0042
      4 C          63.4776   85.4599   15.5068 C.ar    1  UNL1        0.0533
      5 C          62.8739   86.0090   16.7653 C.ar    1  UNL1        0.0042
      6 C          62.9622   87.4768   17.0612 C.ar    1  UNL1       -0.0033
      7 C          63.3892   83.9920   15.2108 C.2     1  UNL1        0.2461
      8 O          64.5954   83.1177   15.3859 O.2     1  UNL1       -0.2701
      9 N          62.0947   83.3985   14.7399 N.am    1  UNL1       -0.2969
     10 H          61.3030   83.9723   14.6250 H       1  UNL1        0.1501
     11 C          62.0064   81.9306   14.4440 C.3     1  UNL1        0.1166
     12 C          62.4026   81.4126   13.0931 C.ar    1  UNL1       -0.0026
     13 C          62.9081   82.3597   12.0455 C.ar    1  UNL1       -0.0026
     14 C          63.3044   81.8418   10.6947 C.ar    1  UNL1       -0.0003
     15 C          63.1951   80.3767   10.3914 C.ar    1  UNL1       -0.0000
     16 C          62.6895   79.4297   11.4391 C.ar    1  UNL1       -0.0003
     17 C          62.2933   79.9477   12.7900 C.ar    1  UNL1       -0.0026
     18 C          63.7427   89.8635   16.3944 C.3     1  UNL1        0.0884
     19 S          63.5046   90.8643   15.3027 S.3     1  UNL1       -0.1088
     20 N          67.4966   93.4663    9.0644 N.pl3   1  UNL1       -0.3375
     21 C          66.9919   92.9620   10.3838 C.ar    1  UNL1        0.1567
     22 N          67.8275   92.6748   11.5960 N.ar    1  UNL1       -0.2245
     23 C          66.9150   92.1916   12.6841 C.ar    1  UNL1        0.0893
     24 C          67.1778   91.7606   14.0966 C.ar    1  UNL1        0.0202
     25 C          66.0410   91.3182   14.9695 C.ar    1  UNL1        0.0077
     26 C          64.6414   91.3068   14.4298 C.ar    1  UNL1        0.0261
     27 C          64.3787   91.7378   13.0173 C.ar    1  UNL1        0.0142
     28 C          65.5155   92.1802   12.1445 C.ar    1  UNL1        0.0502
     29 S          65.5630   92.6563   10.7229 S.2     1  UNL1       -0.0520
     30 H          68.4577   93.6382    8.9381 H       1  UNL1        0.1442
     31 H          66.8667   93.6253    8.3246 H       1  UNL1        0.1442
@<TRIPOS>BOND
     1    20    21    1
     2    21    22   ar
     3    22    23   ar
     4    23    24   ar
     5    24    25   ar
     6    25    26   ar
     7    26    19    1
     8    19    18    1
     9    18     1    1
    10     1     2   ar
    11     2     3   ar
    12     3     4   ar
    13     4     7    1
    14     7     8    2
    15     7     9   am
    16     9    11    1
    17    11    12    1
    18    12    13   ar
    19    13    14   ar
    20    14    15   ar
    21    15    16   ar
    22    16    17   ar
    23     4     5   ar
    24     5     6   ar
    25    26    27   ar
    26    27    28   ar
    27    28    29   ar
    28    29    21   ar
    29    28    23   ar
    30     6     1   ar
    31    17    12   ar
    32    20    30    1
    33    20    31    1
    34     9    10    1
@<TRIPOS>MOLECULE
*****
 31 34 0 0 0
SMALL
GASTEIGER

@<TRIPOS>ATOM
      1 C          63.1609   84.5589    9.4588 C.ar    1  UNL1       -0.0110
      2 C          62.8283   84.5717    7.9962 C.ar    1  UNL1       -0.0033
      3 C          61.6945   85.4146    7.4923 C.ar    1  UNL1        0.0042
      4 C          60.8932   86.2446    8.4510 C.ar    1  UNL1        0.0533
      5 C          61.2258   86.2318    9.9135 C.ar    1  UNL1        0.0042
      6 C          62.3597   85.3889   10.4174 C.ar    1  UNL1       -0.0033
      7 C          59.7594   87.0875    7.9470 C.2     1  UNL1        0.2461
      8 O          58.3753   86.5145    7.8704 O.2     1  UNL1       -0.2701
      9 N          60.0096   88.5034    7.5197 N.am    1  UNL1       -0.2969
     10 H          60.9181   88.8795    7.5699 H       1  UNL1        0.1501
     11 C          58.8758   89.3462    7.0157 C.3     1  UNL1        0.1166
     12 C          59.1154   90.3554    5.9321 C.ar    1  UNL1       -0.0026
     13 C          57.9635   91.1230    5.3541 C.ar    1  UNL1       -0.0026
     14 C          58.2030   92.1322    4.2706 C.ar    1  UNL1       -0.0003
     15 C          59.5944   92.3739    3.7650 C.ar    1  UNL1       -0.0000
     16 C          60.7463   91.6063    4.3430 C.ar    1  UNL1       -0.0003
     17 C          60.5067   90.5971    5.4266 C.ar    1  UNL1       -0.0026
     18 C          64.2948   83.7160    9.9627 C.3     1  UNL1        0.0884
     19 S          64.0368   82.6395   10.9749 S.3     1  UNL1       -0.1088
     20 N          63.0899   86.4623   17.7655 N.pl3   1  UNL1       -0.3375
     21 C          63.0732   85.5512   16.5740 C.ar    1  UNL1        0.1567
     22 N          62.2281   84.3222   16.4157 N.ar    1  UNL1       -0.2245
     23 C          62.5313   83.7206   15.0755 C.ar    1  UNL1        0.0893
     24 C          62.0005   82.5030   14.3786 C.ar    1  UNL1        0.0202
     25 C          62.5024   82.1426   13.0118 C.ar    1  UNL1        0.0077
     26 C          63.5350   82.9999   12.3418 C.ar    1  UNL1        0.0261
     27 C          64.0657   84.2175   13.0387 C.ar    1  UNL1        0.0142
     28 C          63.5639   84.5779   14.4055 C.ar    1  UNL1        0.0502
     29 S          63.8988   85.7092   15.3317 S.2     1  UNL1       -0.0520
     30 H          62.5085   86.2740   18.5374 H       1  UNL1        0.1442
     31 H          63.6823   87.2486   17.7758 H       1  UNL1        0.1442
@<TRIPOS>BOND
     1    20    21    1
     2    21    22   ar
     3    22    23   ar
     4    23    24   ar
     5    24    25   ar
     6    25    26   ar
     7    26    19    1
     8    19    18    1
     9    18     1    1
    10     1     2   ar
    11     2     3   ar
    12     3     4   ar
    13     4     7    1
    14     7     8    2
    15     7     9   am
    16     9    11    1
    17    11    12    1
    18    12    13   ar
    19    13    14   ar
    20    14    15   ar
    21    15    16   ar
    22    16    17   ar
    23     4     5   ar
    24     5     6   ar
    25    26    27   ar
    26    27    28   ar
    27    28    29   ar
    28    29    21   ar
    29    28    23   ar
    30     6     1   ar
    31    17    12   ar
    32    20    30    1
    33    20    31    1
    34     9    10    1
