@<TRIPOS>MOLECULE
*****
 54 59 0 0 0
SMALL
GASTEIGER

@<TRIPOS>ATOM
      1 N          61.1528   85.9424    8.5257 N.3     1  UNL1       -0.1862
      2 C          61.9757   84.7857    9.0100 C.3     1  UNL1        0.1775
      3 C          62.7719   84.9093   10.2752 C.2     1  UNL1        0.2452
      4 O          63.5948   83.7524   10.7596 O.2     1  UNL1       -0.2732
      5 N          62.7451   86.1896   11.0562 N.am    1  UNL1       -0.2541
      6 C          63.5413   86.3132   12.3214 C.3     1  UNL1        0.1577
      7 C          63.5145   87.5936   13.1023 C.2     1  UNL1        0.2445
      8 O          64.3107   87.7172   14.3676 O.2     1  UNL1       -0.2731
      9 N          62.6916   88.7505   12.6180 N.am    1  UNL1       -0.2705
     10 C          61.8954   88.6269   11.3528 C.3     1  UNL1        0.1359
     11 C          61.9222   87.3464   10.5718 C.3     1  UNL1        0.1908
     12 N          61.1260   87.2228    9.3066 N.am    1  UNL1       -0.1863
     13 C          60.3031   88.3797    8.8223 C.2     1  UNL1        0.3191
     14 O          60.2763   89.6600    9.6032 O.2     1  UNL1       -0.2512
     15 N          59.5069   88.2561    7.5570 N.am    1  UNL1       -0.2836
     16 H          59.5245   87.4157    7.0445 H       1  UNL1        0.1513
     17 C          60.3566   85.8188    7.2604 C.3     1  UNL1        0.1188
     18 C          61.9549   84.4696    5.7193 C.2     1  UNL1       -0.0034
     19 C          60.5996   84.6669    6.3309 C.2     1  UNL1       -0.0071
     20 C          64.3642   85.1565   12.8057 C.3     1  UNL1        0.0556
     21 C          63.6898   83.9114   13.3008 C.ar    1  UNL1       -0.0198
     22 C          64.2631   82.5655   12.9694 C.ar    1  UNL1       -0.0011
     23 C          63.5887   81.3205   13.4644 C.ar    1  UNL1        0.0363
     24 C          62.3410   81.4214   14.2909 C.ar    1  UNL1        0.1337
     25 O          61.6666   80.1763   14.7859 O.3     1  UNL1       -0.5055
     26 C          61.7677   82.7673   14.6223 C.ar    1  UNL1        0.0363
     27 C          62.4421   84.0123   14.1273 C.ar    1  UNL1       -0.0011
     28 H          62.0247   79.3356   14.5789 H       1  UNL1        0.2922
     29 C          62.6648   90.0308   13.3989 C.3     1  UNL1        0.1217
     30 C          63.8826   90.9053   13.4475 C.ar    1  UNL1        0.0135
     31 C          64.6616   91.0361   14.7227 C.ar    1  UNL1       -0.0012
     32 C          65.8793   91.9106   14.7714 C.ar    1  UNL1       -0.0002
     33 C          66.3181   92.6542   13.5448 C.ar    1  UNL1        0.0016
     34 C          65.5392   92.5233   12.2696 C.ar    1  UNL1        0.0214
     35 C          65.7287   93.1300   10.9110 C.ar    1  UNL1        0.0721
     36 C          64.6281   92.6306   10.0227 C.ar    1  UNL1        0.0805
     37 N          63.7584   91.7152   10.8323 N.ar    1  UNL1       -0.3241
     38 C          62.5395   90.9929   10.3397 C.3     1  UNL1        0.1305
     39 C          64.3214   91.6489   12.2210 C.ar    1  UNL1        0.0577
     40 C          66.8263   94.0711   10.5109 C.2     1  UNL1        0.2506
     41 O          68.2157   93.5515   10.2882 O.2     1  UNL1       -0.2699
     42 N          66.5344   95.5317   10.3335 N.am    1  UNL1       -0.2717
     43 C          67.6318   96.4727    9.9334 C.3     1  UNL1        0.1153
     44 C          65.1449   96.0512   10.5562 C.3     1  UNL1        0.1254
     45 C          64.4648   96.8554    9.4881 C.3     1  UNL1        0.1586
     46 O          64.7901   96.6117    8.0442 O.3     1  UNL1       -0.3802
     47 H          65.7116   96.8618    7.8737 H       1  UNL1        0.2105
     48 C          58.6840   89.4128    7.0727 C.3     1  UNL1        0.1177
     49 C          59.2051   90.2987    5.9801 C.ar    1  UNL1       -0.0025
     50 C          60.6646   90.2836    5.6344 C.ar    1  UNL1       -0.0026
     51 C          61.1858   91.1694    4.5418 C.ar    1  UNL1       -0.0003
     52 C          60.2474   92.0703    3.7950 C.ar    1  UNL1       -0.0000
     53 C          58.7878   92.0855    4.1407 C.ar    1  UNL1       -0.0003
     54 C          58.2667   91.1996    5.2333 C.ar    1  UNL1       -0.0026
@<TRIPOS>BOND
     1    18    19    2
     2    19    17    1
     3    17     1    1
     4     1     2    1
     5     2     3    1
     6     3     4    2
     7     3     5   am
     8     5     6    1
     9     6    20    1
    10    20    21    1
    11    21    22   ar
    12    22    23   ar
    13    23    24   ar
    14    24    25    1
    15    24    26   ar
    16    26    27   ar
    17     6     7    1
    18     7     8    2
    19     7     9   am
    20     9    29    1
    21    29    30    1
    22    30    31   ar
    23    31    32   ar
    24    32    33   ar
    25    33    34   ar
    26    34    35   ar
    27    35    40    1
    28    40    41    2
    29    40    42   am
    30    42    43    1
    31    42    44    1
    32    44    45    1
    33    45    46    1
    34    35    36   ar
    35    36    37   ar
    36    37    38    1
    37    37    39   ar
    38     9    10    1
    39    11    10    1
    40    11    12    1
    41    12    13   am
    42    13    14    2
    43    13    15   am
    44    15    48    1
    45    48    49    1
    46    49    50   ar
    47    50    51   ar
    48    51    52   ar
    49    52    53   ar
    50    53    54   ar
    51    12     1    1
    52    54    49   ar
    53    11     5    1
    54    27    21   ar
    55    39    30   ar
    56    39    34   ar
    57    25    28    1
    58    46    47    1
    59    15    16    1
@<TRIPOS>MOLECULE
*****
 54 59 0 0 0
SMALL
GASTEIGER

@<TRIPOS>ATOM
      1 N          62.4780   84.2568    9.3342 N.3     1  UNL1       -0.1862
      2 C          61.6706   84.3707    8.0752 C.3     1  UNL1        0.1775
      3 C          60.9226   85.6360    7.7758 C.2     1  UNL1        0.2452
      4 O          60.1153   85.7499    6.5167 O.2     1  UNL1       -0.2732
      5 N          60.9819   86.7873    8.7354 N.am    1  UNL1       -0.2541
      6 C          60.2339   88.0525    8.4360 C.3     1  UNL1        0.1577
      7 C          60.2932   89.2038    9.3956 C.2     1  UNL1        0.2445
      8 O          59.5452   90.4691    9.0962 O.2     1  UNL1       -0.2731
      9 N          61.1006   89.0899   10.6547 N.am    1  UNL1       -0.2705
     10 C          61.8486   87.8247   10.9541 C.3     1  UNL1        0.1359
     11 C          61.7893   86.6734    9.9944 C.3     1  UNL1        0.1908
     12 N          62.5373   85.4081   10.2938 N.am    1  UNL1       -0.1863
     13 C          63.3446   85.2942   11.5529 C.2     1  UNL1        0.3191
     14 O          63.4039   86.4455   12.5126 O.2     1  UNL1       -0.2512
     15 N          64.0926   84.0290   11.8524 N.am    1  UNL1       -0.2836
     16 H          64.0537   83.2733   11.2225 H       1  UNL1        0.1513
     17 C          63.2260   82.9916    9.6336 C.3     1  UNL1        0.1188
     18 C          63.0374   80.5415   10.4772 C.2     1  UNL1       -0.0034
     19 C          62.6485   81.9862   10.5853 C.2     1  UNL1       -0.0071
     20 C          59.4266   88.1665    7.1770 C.3     1  UNL1        0.0556
     21 C          59.4631   89.4333    6.3746 C.ar    1  UNL1       -0.0198
     22 C          58.1915   90.1738    6.0838 C.ar    1  UNL1       -0.0011
     23 C          58.2281   91.4407    5.2815 C.ar    1  UNL1        0.0363
     24 C          59.5362   91.9670    4.7700 C.ar    1  UNL1        0.1337
     25 O          59.5727   93.2339    3.9676 O.3     1  UNL1       -0.5055
     26 C          60.8079   91.2265    5.0608 C.ar    1  UNL1        0.0363
     27 C          60.7714   89.9596    5.8631 C.ar    1  UNL1       -0.0011
     28 H          58.7784   93.6965    3.7860 H       1  UNL1        0.2922
     29 C          61.1599   90.2413   11.6143 C.3     1  UNL1        0.1217
     30 C          62.2835   90.3359   12.6037 C.ar    1  UNL1        0.0135
     31 C          62.1183   89.7692   13.9826 C.ar    1  UNL1       -0.0012
     32 C          63.2418   89.8638   14.9719 C.ar    1  UNL1       -0.0002
     33 C          64.5304   90.5252   14.5823 C.ar    1  UNL1        0.0016
     34 C          64.6956   91.0920   13.2034 C.ar    1  UNL1        0.0214
     35 C          65.8411   91.7956   12.5379 C.ar    1  UNL1        0.0721
     36 C          65.4255   92.1358   11.1374 C.ar    1  UNL1        0.0805
     37 N          64.0233   91.6425   10.9372 N.ar    1  UNL1       -0.3241
     38 C          63.2141   91.7716    9.6808 C.3     1  UNL1        0.1305
     39 C          63.5721   90.9974   12.2140 C.ar    1  UNL1        0.0577
     40 C          67.1691   92.1048   13.1634 C.2     1  UNL1        0.2506
     41 O          68.4371   91.7358   12.4521 O.2     1  UNL1       -0.2699
     42 N          67.2289   92.7829   14.5000 N.am    1  UNL1       -0.2717
     43 C          68.5567   93.0921   15.1254 C.3     1  UNL1        0.1153
     44 C          65.9608   93.1519   15.2112 C.3     1  UNL1        0.1254
     45 C          65.7032   92.6421   16.5981 C.3     1  UNL1        0.1586
     46 O          64.3649   92.8583   17.2402 O.3     1  UNL1       -0.3802
     47 H          64.2265   93.8070   17.3877 H       1  UNL1        0.2105
     48 C          64.9000   83.9151   13.1114 C.3     1  UNL1        0.1177
     49 C          64.3857   84.5103   14.3886 C.ar    1  UNL1       -0.0025
     50 C          64.9724   85.7884   14.9100 C.ar    1  UNL1       -0.0026
     51 C          64.4581   86.3837   16.1872 C.ar    1  UNL1       -0.0003
     52 C          63.3571   85.7007   16.9430 C.ar    1  UNL1       -0.0000
     53 C          62.7702   84.4225   16.4215 C.ar    1  UNL1       -0.0003
     54 C          63.2845   83.8273   15.1443 C.ar    1  UNL1       -0.0026
@<TRIPOS>BOND
     1    18    19    2
     2    19    17    1
     3    17     1    1
     4     1     2    1
     5     2     3    1
     6     3     4    2
     7     3     5   am
     8     5     6    1
     9     6    20    1
    10    20    21    1
    11    21    22   ar
    12    22    23   ar
    13    23    24   ar
    14    24    25    1
    15    24    26   ar
    16    26    27   ar
    17     6     7    1
    18     7     8    2
    19     7     9   am
    20     9    29    1
    21    29    30    1
    22    30    31   ar
    23    31    32   ar
    24    32    33   ar
    25    33    34   ar
    26    34    35   ar
    27    35    40    1
    28    40    41    2
    29    40    42   am
    30    42    43    1
    31    42    44    1
    32    44    45    1
    33    45    46    1
    34    35    36   ar
    35    36    37   ar
    36    37    38    1
    37    37    39   ar
    38     9    10    1
    39    11    10    1
    40    11    12    1
    41    12    13   am
    42    13    14    2
    43    13    15   am
    44    15    48    1
    45    48    49    1
    46    49    50   ar
    47    50    51   ar
    48    51    52   ar
    49    52    53   ar
    50    53    54   ar
    51    12     1    1
    52    54    49   ar
    53    11     5    1
    54    27    21   ar
    55    39    30   ar
    56    39    34   ar
    57    25    28    1
    58    46    47    1
    59    15    16    1
@<TRIPOS>MOLECULE
*****
 54 59 0 0 0
SMALL
GASTEIGER

@<TRIPOS>ATOM
      1 N          62.9703   84.0905    9.6279 N.3     1  UNL1       -0.1862
      2 C          62.3206   84.1343    8.2766 C.3     1  UNL1        0.1775
      3 C          61.5224   85.3363    7.8668 C.2     1  UNL1        0.2452
      4 O          60.8727   85.3801    6.5155 O.2     1  UNL1       -0.2732
      5 N          61.3740   86.4946    8.8082 N.am    1  UNL1       -0.2541
      6 C          60.5758   87.6967    8.3983 C.3     1  UNL1        0.1577
      7 C          60.4273   88.8550    9.3397 C.2     1  UNL1        0.2445
      8 O          59.6292   90.0570    8.9299 O.2     1  UNL1       -0.2731
      9 N          61.0770   88.8112   10.6911 N.am    1  UNL1       -0.2705
     10 C          61.8752   87.6092   11.1009 C.3     1  UNL1        0.1359
     11 C          62.0237   86.4508   10.1594 C.3     1  UNL1        0.1908
     12 N          62.8218   85.2488   10.5693 N.am    1  UNL1       -0.1863
     13 C          63.4715   85.2050   11.9206 C.2     1  UNL1        0.3191
     14 O          63.3231   86.3633   12.8620 O.2     1  UNL1       -0.2512
     15 N          64.2697   84.0030   12.3305 N.am    1  UNL1       -0.2836
     16 H          64.3671   83.2428   11.7126 H       1  UNL1        0.1513
     17 C          63.7685   82.8884   10.0377 C.3     1  UNL1        0.1188
     18 C          62.7173   81.2694   11.7766 C.2     1  UNL1       -0.0034
     19 C          63.0720   81.5989   10.3569 C.2     1  UNL1       -0.0071
     20 C          59.9261   87.7405    7.0471 C.3     1  UNL1        0.0556
     21 C          59.6528   89.0602    6.3887 C.ar    1  UNL1       -0.0198
     22 C          58.2511   89.5904    6.3246 C.ar    1  UNL1       -0.0011
     23 C          57.9778   90.9102    5.6662 C.ar    1  UNL1        0.0363
     24 C          59.1061   91.6998    5.0719 C.ar    1  UNL1        0.1337
     25 O          58.8328   93.0196    4.4135 O.3     1  UNL1       -0.5055
     26 C          60.5079   91.1697    5.1360 C.ar    1  UNL1        0.0363
     27 C          60.7812   89.8499    5.7944 C.ar    1  UNL1       -0.0011
     28 H          57.9572   93.3507    4.3735 H       1  UNL1        0.2922
     29 C          60.9286   89.9695   11.6325 C.3     1  UNL1        0.1217
     30 C          61.8988   90.1466   12.7627 C.ar    1  UNL1        0.0135
     31 C          61.5838   89.5833   14.1168 C.ar    1  UNL1       -0.0012
     32 C          62.5540   89.7603   15.2469 C.ar    1  UNL1       -0.0002
     33 C          63.8392   90.5006   15.0231 C.ar    1  UNL1        0.0016
     34 C          64.1542   91.0640   13.6690 C.ar    1  UNL1        0.0214
     35 C          65.3326   91.8345   13.1519 C.ar    1  UNL1        0.0721
     36 C          65.0908   92.1337   11.7021 C.ar    1  UNL1        0.0805
     37 N          63.7629   91.5481   11.3232 N.ar    1  UNL1       -0.3241
     38 C          63.1256   91.6123    9.9668 C.3     1  UNL1        0.1305
     39 C          63.1840   90.8869   12.5388 C.ar    1  UNL1        0.0577
     40 C          66.5409   92.2355   13.9453 C.2     1  UNL1        0.2506
     41 O          66.3798   92.7775   15.3347 O.2     1  UNL1       -0.2699
     42 N          67.9102   92.0945   13.3493 N.am    1  UNL1       -0.2717
     43 C          69.1184   92.4954   14.1426 C.3     1  UNL1        0.1153
     44 C          68.0712   91.5525   11.9599 C.3     1  UNL1        0.1254
     45 C          68.0374   92.4825   10.7836 C.3     1  UNL1        0.1586
     46 O          69.2241   92.5817    9.8715 O.3     1  UNL1       -0.3802
     47 H          69.9738   92.9606   10.3565 H       1  UNL1        0.2105
     48 C          64.9194   83.9592   13.6817 C.3     1  UNL1        0.1177
     49 C          64.2726   84.6466   14.8476 C.ar    1  UNL1       -0.0025
     50 C          64.7755   85.9844   15.3027 C.ar    1  UNL1       -0.0026
     51 C          64.1287   86.6718   16.4686 C.ar    1  UNL1       -0.0003
     52 C          62.9790   86.0214   17.1792 C.ar    1  UNL1       -0.0000
     53 C          62.4760   84.6835   16.7240 C.ar    1  UNL1       -0.0003
     54 C          63.1228   83.9961   15.5582 C.ar    1  UNL1       -0.0026
@<TRIPOS>BOND
     1    18    19    2
     2    19    17    1
     3    17     1    1
     4     1     2    1
     5     2     3    1
     6     3     4    2
     7     3     5   am
     8     5     6    1
     9     6    20    1
    10    20    21    1
    11    21    22   ar
    12    22    23   ar
    13    23    24   ar
    14    24    25    1
    15    24    26   ar
    16    26    27   ar
    17     6     7    1
    18     7     8    2
    19     7     9   am
    20     9    29    1
    21    29    30    1
    22    30    31   ar
    23    31    32   ar
    24    32    33   ar
    25    33    34   ar
    26    34    35   ar
    27    35    40    1
    28    40    41    2
    29    40    42   am
    30    42    43    1
    31    42    44    1
    32    44    45    1
    33    45    46    1
    34    35    36   ar
    35    36    37   ar
    36    37    38    1
    37    37    39   ar
    38     9    10    1
    39    11    10    1
    40    11    12    1
    41    12    13   am
    42    13    14    2
    43    13    15   am
    44    15    48    1
    45    48    49    1
    46    49    50   ar
    47    50    51   ar
    48    51    52   ar
    49    52    53   ar
    50    53    54   ar
    51    12     1    1
    52    54    49   ar
    53    11     5    1
    54    27    21   ar
    55    39    30   ar
    56    39    34   ar
    57    25    28    1
    58    46    47    1
    59    15    16    1
@<TRIPOS>MOLECULE
*****
 54 59 0 0 0
SMALL
GASTEIGER

@<TRIPOS>ATOM
      1 N          62.0944   84.5220   10.4140 N.3     1  UNL1       -0.1862
      2 C          61.3107   84.4510    9.1371 C.3     1  UNL1        0.1775
      3 C          60.7746   85.7064    8.5153 C.2     1  UNL1        0.2452
      4 O          59.9908   85.6353    7.2382 O.2     1  UNL1       -0.2732
      5 N          61.0222   87.0328    9.1704 N.am    1  UNL1       -0.2541
      6 C          60.4862   88.2882    8.5486 C.3     1  UNL1        0.1577
      7 C          60.7338   89.6146    9.2037 C.2     1  UNL1        0.2445
      8 O          60.1977   90.8699    8.5819 O.2     1  UNL1       -0.2731
      9 N          61.5176   89.6857   10.4808 N.am    1  UNL1       -0.2705
     10 C          62.0537   88.4303   11.1026 C.3     1  UNL1        0.1359
     11 C          61.8060   87.1038   10.4474 C.3     1  UNL1        0.1908
     12 N          62.3420   85.8484   11.0692 N.am    1  UNL1       -0.1863
     13 C          63.1258   85.9195   12.3462 C.2     1  UNL1        0.3191
     14 O          63.3735   87.2459   13.0014 O.2     1  UNL1       -0.2512
     15 N          63.6619   84.6641   12.9680 N.am    1  UNL1       -0.2836
     16 H          63.4993   83.7936   12.5380 H       1  UNL1        0.1513
     17 C          62.6305   83.2667   11.0359 C.3     1  UNL1        0.1188
     18 C          63.3711   80.8805   10.3234 C.2     1  UNL1       -0.0034
     19 C          63.5394   82.3692   10.2496 C.2     1  UNL1       -0.0071
     20 C          59.7024   88.2171    7.2716 C.3     1  UNL1        0.0556
     21 C          59.5866   89.4283    6.3943 C.ar    1  UNL1       -0.0198
     22 C          60.8016   89.9732    5.7038 C.ar    1  UNL1       -0.0011
     23 C          60.6858   91.1844    4.8265 C.ar    1  UNL1        0.0363
     24 C          59.3550   91.8507    4.6398 C.ar    1  UNL1        0.1337
     25 O          59.2392   93.0618    3.7625 O.3     1  UNL1       -0.5055
     26 C          58.1399   91.3058    5.3303 C.ar    1  UNL1        0.0363
     27 C          58.2557   90.0946    6.2076 C.ar    1  UNL1       -0.0011
     28 H          59.9982   93.4022    3.3311 H       1  UNL1        0.2922
     29 C          61.7652   91.0121   11.1359 C.3     1  UNL1        0.1217
     30 C          63.1430   91.6053   11.1312 C.ar    1  UNL1        0.0135
     31 C          63.6092   92.4094    9.9539 C.ar    1  UNL1       -0.0012
     32 C          64.9869   93.0026    9.9491 C.ar    1  UNL1       -0.0002
     33 C          65.8983   92.7919   11.1216 C.ar    1  UNL1        0.0016
     34 C          65.4320   91.9878   12.2990 C.ar    1  UNL1        0.0214
     35 C          66.1021   91.6140   13.5878 C.ar    1  UNL1        0.0721
     36 C          65.1386   90.7896   14.3891 C.ar    1  UNL1        0.0805
     37 N          63.8731   90.6540   13.5955 N.ar    1  UNL1       -0.3241
     38 C          62.6422   89.9088   14.0193 C.3     1  UNL1        0.1305
     39 C          64.0543   91.3946   12.3037 C.ar    1  UNL1        0.0577
     40 C          67.4919   91.9972   14.0025 C.2     1  UNL1        0.2506
     41 O          68.6726   91.4840   13.2328 O.2     1  UNL1       -0.2699
     42 N          67.7008   92.8936   15.1869 N.am    1  UNL1       -0.2717
     43 C          69.0904   93.2768   15.6017 C.3     1  UNL1        0.1153
     44 C          66.5199   93.4067   15.9566 C.3     1  UNL1        0.1254
     45 C          65.7005   92.4653   16.7886 C.3     1  UNL1        0.1586
     46 O          64.3126   92.8494   17.2083 O.3     1  UNL1       -0.3802
     47 H          64.3556   93.6058   17.8140 H       1  UNL1        0.2105
     48 C          64.4456   84.7352   14.2450 C.3     1  UNL1        0.1177
     49 C          63.9079   85.5075   15.4130 C.ar    1  UNL1       -0.0025
     50 C          63.0298   84.8278   16.4214 C.ar    1  UNL1       -0.0026
     51 C          62.4921   85.6002   17.5895 C.ar    1  UNL1       -0.0003
     52 C          62.8325   87.0523   17.7491 C.ar    1  UNL1       -0.0000
     53 C          63.7106   87.7321   16.7407 C.ar    1  UNL1       -0.0003
     54 C          64.2483   86.9597   15.5727 C.ar    1  UNL1       -0.0026
@<TRIPOS>BOND
     1    18    19    2
     2    19    17    1
     3    17     1    1
     4     1     2    1
     5     2     3    1
     6     3     4    2
     7     3     5   am
     8     5     6    1
     9     6    20    1
    10    20    21    1
    11    21    22   ar
    12    22    23   ar
    13    23    24   ar
    14    24    25    1
    15    24    26   ar
    16    26    27   ar
    17     6     7    1
    18     7     8    2
    19     7     9   am
    20     9    29    1
    21    29    30    1
    22    30    31   ar
    23    31    32   ar
    24    32    33   ar
    25    33    34   ar
    26    34    35   ar
    27    35    40    1
    28    40    41    2
    29    40    42   am
    30    42    43    1
    31    42    44    1
    32    44    45    1
    33    45    46    1
    34    35    36   ar
    35    36    37   ar
    36    37    38    1
    37    37    39   ar
    38     9    10    1
    39    11    10    1
    40    11    12    1
    41    12    13   am
    42    13    14    2
    43    13    15   am
    44    15    48    1
    45    48    49    1
    46    49    50   ar
    47    50    51   ar
    48    51    52   ar
    49    52    53   ar
    50    53    54   ar
    51    12     1    1
    52    54    49   ar
    53    11     5    1
    54    27    21   ar
    55    39    30   ar
    56    39    34   ar
    57    25    28    1
    58    46    47    1
    59    15    16    1
@<TRIPOS>MOLECULE
*****
 54 59 0 0 0
SMALL
GASTEIGER

@<TRIPOS>ATOM
      1 N          62.5634   84.2220   10.1273 N.3     1  UNL1       -0.1862
      2 C          61.8715   84.1779    8.7972 C.3     1  UNL1        0.1775
      3 C          61.2333   85.4168    8.2423 C.2     1  UNL1        0.2452
      4 O          60.5413   85.3727    6.9121 O.2     1  UNL1       -0.2732
      5 N          61.2871   86.6998    9.0175 N.am    1  UNL1       -0.2541
      6 C          60.6490   87.9387    8.4626 C.3     1  UNL1        0.1577
      7 C          60.7028   89.2217    9.2378 C.2     1  UNL1        0.2445
      8 O          60.0646   90.4606    8.6829 O.2     1  UNL1       -0.2731
      9 N          61.3948   89.2658   10.5680 N.am    1  UNL1       -0.2705
     10 C          62.0329   88.0270   11.1229 C.3     1  UNL1        0.1359
     11 C          61.9791   86.7439   10.3476 C.3     1  UNL1        0.1908
     12 N          62.6173   85.5050   10.9025 N.am    1  UNL1       -0.1863
     13 C          63.3092   85.5492   12.2326 C.2     1  UNL1        0.3191
     14 O          63.3631   86.8322   13.0078 O.2     1  UNL1       -0.2512
     15 N          63.9474   84.3103   12.7875 N.am    1  UNL1       -0.2836
     16 H          63.9121   83.4682   12.2787 H       1  UNL1        0.1513
     17 C          63.2016   82.9831   10.6821 C.3     1  UNL1        0.1188
     18 C          63.0175   80.7797   12.0464 C.2     1  UNL1       -0.0034
     19 C          62.4158   82.0711   11.5769 C.2     1  UNL1       -0.0071
     20 C          59.9570   87.8946    7.1325 C.3     1  UNL1        0.0556
     21 C          59.7100   89.1644    6.3731 C.ar    1  UNL1       -0.0198
     22 C          58.3248   89.7346    6.2957 C.ar    1  UNL1       -0.0011
     23 C          58.0779   91.0044    5.5363 C.ar    1  UNL1        0.0363
     24 C          59.2160   91.7039    4.8543 C.ar    1  UNL1        0.1337
     25 O          58.9690   92.9737    4.0949 O.3     1  UNL1       -0.5055
     26 C          60.6013   91.1336    4.9317 C.ar    1  UNL1        0.0363
     27 C          60.8483   89.8639    5.6911 C.ar    1  UNL1       -0.0011
     28 H          58.1037   93.3299    4.0465 H       1  UNL1        0.2922
     29 C          61.4486   90.5488   11.3432 C.3     1  UNL1        0.1217
     30 C          62.7616   91.2426   11.5550 C.ar    1  UNL1        0.0135
     31 C          63.3925   92.0128   10.4331 C.ar    1  UNL1       -0.0012
     32 C          64.7054   92.7066   10.6449 C.ar    1  UNL1       -0.0002
     33 C          65.3874   92.6301   11.9787 C.ar    1  UNL1        0.0016
     34 C          64.7565   91.8599   13.1006 C.ar    1  UNL1        0.0214
     35 C          65.1903   91.6094   14.5145 C.ar    1  UNL1        0.0721
     36 C          64.1455   90.7608   15.1765 C.ar    1  UNL1        0.0805
     37 N          63.0660   90.4869   14.1718 N.ar    1  UNL1       -0.3241
     38 C          61.8265   89.6760   14.4084 C.3     1  UNL1        0.1305
     39 C          63.4436   91.1662   12.8888 C.ar    1  UNL1        0.0577
     40 C          66.4482   92.1182   15.1541 C.2     1  UNL1        0.2506
     41 O          66.3943   92.7591   16.5092 O.2     1  UNL1       -0.2699
     42 N          67.7599   91.9860   14.4386 N.am    1  UNL1       -0.2717
     43 C          69.0177   92.4948   15.0781 C.3     1  UNL1        0.1153
     44 C          67.8137   91.3451   13.0835 C.3     1  UNL1        0.1254
     45 C          68.9044   91.7142   12.1221 C.3     1  UNL1        0.1586
     46 O          68.5602   92.1499   10.7287 O.3     1  UNL1       -0.3802
     47 H          68.1632   91.4077   10.2466 H       1  UNL1        0.2105
     48 C          64.6394   84.3544   14.1176 C.3     1  UNL1        0.1177
     49 C          64.0282   85.1161   15.2561 C.ar    1  UNL1       -0.0025
     50 C          64.4605   86.5254   15.5334 C.ar    1  UNL1       -0.0026
     51 C          63.8493   87.2872   16.6719 C.ar    1  UNL1       -0.0003
     52 C          62.8059   86.6396   17.5331 C.ar    1  UNL1       -0.0000
     53 C          62.3735   85.2303   17.2559 C.ar    1  UNL1       -0.0003
     54 C          62.9846   84.4685   16.1174 C.ar    1  UNL1       -0.0026
@<TRIPOS>BOND
     1    18    19    2
     2    19    17    1
     3    17     1    1
     4     1     2    1
     5     2     3    1
     6     3     4    2
     7     3     5   am
     8     5     6    1
     9     6    20    1
    10    20    21    1
    11    21    22   ar
    12    22    23   ar
    13    23    24   ar
    14    24    25    1
    15    24    26   ar
    16    26    27   ar
    17     6     7    1
    18     7     8    2
    19     7     9   am
    20     9    29    1
    21    29    30    1
    22    30    31   ar
    23    31    32   ar
    24    32    33   ar
    25    33    34   ar
    26    34    35   ar
    27    35    40    1
    28    40    41    2
    29    40    42   am
    30    42    43    1
    31    42    44    1
    32    44    45    1
    33    45    46    1
    34    35    36   ar
    35    36    37   ar
    36    37    38    1
    37    37    39   ar
    38     9    10    1
    39    11    10    1
    40    11    12    1
    41    12    13   am
    42    13    14    2
    43    13    15   am
    44    15    48    1
    45    48    49    1
    46    49    50   ar
    47    50    51   ar
    48    51    52   ar
    49    52    53   ar
    50    53    54   ar
    51    12     1    1
    52    54    49   ar
    53    11     5    1
    54    27    21   ar
    55    39    30   ar
    56    39    34   ar
    57    25    28    1
    58    46    47    1
    59    15    16    1
