@<TRIPOS>MOLECULE
*****
 33 37 0 0 0
SMALL
GASTEIGER

@<TRIPOS>ATOM
      1 O          63.4479   87.4127   13.4504 O.2     1  UNL1       -0.2698
      2 C          62.9431   86.4858   12.3845 C.2     1  UNL1        0.2507
      3 N          62.0203   86.9995   11.3194 N.am    1  UNL1       -0.2723
      4 C          61.5155   86.0726   10.2535 C.3     1  UNL1        0.1257
      5 C          60.5927   86.5864    9.1883 C.3     1  UNL1        0.1637
      6 O          60.1747   88.0269    9.1891 O.3     1  UNL1       -0.3502
      7 C          60.6795   88.9538   10.2549 C.3     1  UNL1        0.1622
      8 C          61.6023   88.4401   11.3201 C.3     1  UNL1        0.1097
      9 C          63.3611   85.0452   12.3839 C.ar    1  UNL1        0.0738
     10 C          63.6705   84.3547   11.0887 C.ar    1  UNL1        0.0175
     11 C          64.0885   82.9141   11.0879 C.ar    1  UNL1        0.0579
     12 CL         64.3979   82.2236    9.7928 Cl      1  UNL1       -0.0822
     13 C          64.1972   82.1641   12.3824 C.ar    1  UNL1        0.0130
     14 C          63.8878   82.8546   13.6776 C.ar    1  UNL1        0.0219
     15 C          63.4698   84.2952   13.6783 C.ar    1  UNL1        0.1073
     16 N          63.1604   84.9857   14.9735 N.ar    1  UNL1       -0.1477
     17 N          64.1292   85.7701   15.8078 N.ar    1  UNL1       -0.1447
     18 C          63.3955   86.2822   17.0117 C.ar    1  UNL1        0.1446
     19 C          61.9732   85.8144   16.9214 C.ar    1  UNL1        0.1446
     20 N          61.8279   85.0131   15.6617 N.ar    1  UNL1       -0.1447
     21 C          62.1070   89.3670   12.3860 C.3     1  UNL1        0.0510
     22 C          63.1711   90.3734   12.0623 C.ar    1  UNL1        0.0086
     23 C          64.1415   90.8057   13.1213 C.ar    1  UNL1        0.0189
     24 C          65.2056   91.8122   12.7977 C.ar    1  UNL1        0.1027
     25 C          65.2993   92.3864   11.4151 C.ar    1  UNL1        0.0232
     26 C          64.3289   91.9540   10.3561 C.ar    1  UNL1        0.0309
     27 C          63.2648   90.9476   10.6797 C.ar    1  UNL1        0.1363
     28 F          62.2944   90.5153    9.6208 F       1  UNL1       -0.2045
     29 N          66.1760   92.2445   13.8566 N.ar    1  UNL1       -0.1478
     30 N          65.8483   92.5158   15.2950 N.ar    1  UNL1       -0.1447
     31 C          67.1142   92.9204   15.9905 C.ar    1  UNL1        0.1446
     32 C          68.2244   92.8991   14.9820 C.ar    1  UNL1        0.1446
     33 N          67.6445   92.4814   13.6632 N.ar    1  UNL1       -0.1447
@<TRIPOS>BOND
     1     1     2    2
     2     2     9    1
     3     9    10   ar
     4    10    11   ar
     5    11    12    1
     6    11    13   ar
     7    13    14   ar
     8    14    15   ar
     9    15    16    1
    10    16    17   ar
    11    17    18   ar
    12    18    19   ar
    13    19    20   ar
    14     2     3   am
    15     3     4    1
    16     4     5    1
    17     5     6    1
    18     6     7    1
    19     7     8    1
    20     8    21    1
    21    21    22    1
    22    22    23   ar
    23    23    24   ar
    24    24    29    1
    25    29    30   ar
    26    30    31   ar
    27    31    32   ar
    28    32    33   ar
    29    24    25   ar
    30    25    26   ar
    31    26    27   ar
    32    27    28    1
    33    15     9   ar
    34    20    16   ar
    35     8     3    1
    36    27    22   ar
    37    33    29   ar
@<TRIPOS>MOLECULE
*****
 33 37 0 0 0
SMALL
GASTEIGER

@<TRIPOS>ATOM
      1 O          63.4170   87.3844   13.1638 O.2     1  UNL1       -0.2698
      2 C          62.7577   87.2564   11.8225 C.2     1  UNL1        0.2507
      3 N          61.9437   88.3914   11.2756 N.am    1  UNL1       -0.2723
      4 C          61.2844   88.2634    9.9344 C.3     1  UNL1        0.1257
      5 C          60.4703   89.3985    9.3875 C.3     1  UNL1        0.1637
      6 O          60.3156   90.6614   10.1818 O.3     1  UNL1       -0.3502
      7 C          60.9749   90.7894   11.5230 C.3     1  UNL1        0.1622
      8 C          61.7889   89.6544   12.0700 C.3     1  UNL1        0.1097
      9 C          62.9125   85.9934   11.0282 C.ar    1  UNL1        0.0738
     10 C          62.8028   86.0298    9.5326 C.ar    1  UNL1        0.0175
     11 C          62.9576   84.7669    8.7383 C.ar    1  UNL1        0.0579
     12 CL         62.8479   84.8033    7.2428 Cl      1  UNL1       -0.0822
     13 C          63.2220   83.4675    9.4395 C.ar    1  UNL1        0.0130
     14 C          63.3316   83.4311   10.9351 C.ar    1  UNL1        0.0219
     15 C          63.1769   84.6941   11.7294 C.ar    1  UNL1        0.1073
     16 N          63.2865   84.6576   13.2249 N.ar    1  UNL1       -0.1477
     17 N          62.1408   84.6208   14.1924 N.ar    1  UNL1       -0.1447
     18 C          62.7074   84.5921   15.5810 C.ar    1  UNL1        0.1446
     19 C          64.2033   84.6111   15.4718 C.ar    1  UNL1        0.1446
     20 N          64.5612   84.6516   14.0157 N.ar    1  UNL1       -0.1447
     21 C          62.4483   89.7824   13.4112 C.3     1  UNL1        0.0510
     22 C          63.6637   90.6469   13.5700 C.ar    1  UNL1        0.0086
     23 C          64.2437   91.3513   12.3795 C.ar    1  UNL1        0.0189
     24 C          65.4592   92.2159   12.5383 C.ar    1  UNL1        0.1027
     25 C          66.0946   92.3761   13.8876 C.ar    1  UNL1        0.0232
     26 C          65.5145   91.6716   15.0781 C.ar    1  UNL1        0.0309
     27 C          64.2991   90.8071   14.9193 C.ar    1  UNL1        0.1363
     28 F          63.7190   90.1027   16.1098 F       1  UNL1       -0.2045
     29 N          66.0393   92.9203   11.3478 N.ar    1  UNL1       -0.1478
     30 N          67.1193   92.3922   10.4507 N.ar    1  UNL1       -0.1447
     31 C          67.3887   93.4220    9.3938 C.ar    1  UNL1        0.1446
     32 C          66.4751   94.5865    9.6376 C.ar    1  UNL1        0.1446
     33 N          65.6411   94.2764   10.8452 N.ar    1  UNL1       -0.1447
@<TRIPOS>BOND
     1     1     2    2
     2     2     9    1
     3     9    10   ar
     4    10    11   ar
     5    11    12    1
     6    11    13   ar
     7    13    14   ar
     8    14    15   ar
     9    15    16    1
    10    16    17   ar
    11    17    18   ar
    12    18    19   ar
    13    19    20   ar
    14     2     3   am
    15     3     4    1
    16     4     5    1
    17     5     6    1
    18     6     7    1
    19     7     8    1
    20     8    21    1
    21    21    22    1
    22    22    23   ar
    23    23    24   ar
    24    24    29    1
    25    29    30   ar
    26    30    31   ar
    27    31    32   ar
    28    32    33   ar
    29    24    25   ar
    30    25    26   ar
    31    26    27   ar
    32    27    28    1
    33    15     9   ar
    34    20    16   ar
    35     8     3    1
    36    27    22   ar
    37    33    29   ar
@<TRIPOS>MOLECULE
*****
 33 37 0 0 0
SMALL
GASTEIGER

@<TRIPOS>ATOM
      1 O          63.8760   87.6577   14.3633 O.2     1  UNL1       -0.2698
      2 C          63.3302   87.1488   13.0621 C.2     1  UNL1        0.2507
      3 N          62.8044   88.1133   12.0408 N.am    1  UNL1       -0.2723
      4 C          62.2586   87.6044   10.7396 C.3     1  UNL1        0.1257
      5 C          61.7327   88.5691    9.7183 C.3     1  UNL1        0.1637
      6 O          61.7527   90.0426    9.9982 O.3     1  UNL1       -0.3502
      7 C          62.2985   90.5515   11.2994 C.3     1  UNL1        0.1622
      8 C          62.8243   89.5869   12.3207 C.3     1  UNL1        0.1097
      9 C          63.3103   85.6752   12.7822 C.ar    1  UNL1        0.0738
     10 C          63.4823   85.1761   11.3781 C.ar    1  UNL1        0.0175
     11 C          63.4623   83.7026   11.0982 C.ar    1  UNL1        0.0579
     12 CL         63.6344   83.2035    9.6942 Cl      1  UNL1       -0.0822
     13 C          63.2704   82.7282   12.2223 C.ar    1  UNL1        0.0130
     14 C          63.0984   83.2273   13.6264 C.ar    1  UNL1        0.0219
     15 C          63.1183   84.7008   13.9063 C.ar    1  UNL1        0.1073
     16 N          62.9463   85.1999   15.3103 N.ar    1  UNL1       -0.1477
     17 N          61.6397   85.4406   16.0067 N.ar    1  UNL1       -0.1447
     18 C          61.9366   85.9354   17.3913 C.ar    1  UNL1        0.1446
     19 C          63.4267   86.0005   17.5507 C.ar    1  UNL1        0.1446
     20 N          64.0507   85.5459   16.2646 N.ar    1  UNL1       -0.1447
     21 C          63.3701   90.0958   13.6219 C.3     1  UNL1        0.0510
     22 C          64.5051   91.0765   13.6269 C.ar    1  UNL1        0.0086
     23 C          65.1180   91.5208   12.3319 C.ar    1  UNL1        0.0189
     24 C          66.2530   92.5015   12.3369 C.ar    1  UNL1        0.1027
     25 C          66.7751   93.0379   13.6368 C.ar    1  UNL1        0.0232
     26 C          66.1621   92.5936   14.9317 C.ar    1  UNL1        0.0309
     27 C          65.0272   91.6129   14.9268 C.ar    1  UNL1        0.1363
     28 F          64.4142   91.1686   16.2217 F       1  UNL1       -0.2045
     29 N          66.8660   92.9458   11.0419 N.ar    1  UNL1       -0.1478
     30 N          66.3862   94.0771   10.1817 N.ar    1  UNL1       -0.1447
     31 C          67.2899   94.1673    8.9880 C.ar    1  UNL1        0.1446
     32 C          68.3284   93.0917    9.1104 C.ar    1  UNL1        0.1446
     33 N          68.0663   92.3368   10.3798 N.ar    1  UNL1       -0.1447
@<TRIPOS>BOND
     1     1     2    2
     2     2     9    1
     3     9    10   ar
     4    10    11   ar
     5    11    12    1
     6    11    13   ar
     7    13    14   ar
     8    14    15   ar
     9    15    16    1
    10    16    17   ar
    11    17    18   ar
    12    18    19   ar
    13    19    20   ar
    14     2     3   am
    15     3     4    1
    16     4     5    1
    17     5     6    1
    18     6     7    1
    19     7     8    1
    20     8    21    1
    21    21    22    1
    22    22    23   ar
    23    23    24   ar
    24    24    29    1
    25    29    30   ar
    26    30    31   ar
    27    31    32   ar
    28    32    33   ar
    29    24    25   ar
    30    25    26   ar
    31    26    27   ar
    32    27    28    1
    33    15     9   ar
    34    20    16   ar
    35     8     3    1
    36    27    22   ar
    37    33    29   ar
@<TRIPOS>MOLECULE
*****
 33 37 0 0 0
SMALL
GASTEIGER

@<TRIPOS>ATOM
      1 O          61.7388   85.6498   13.0767 O.2     1  UNL1       -0.2698
      2 C          62.3626   84.6215   12.1803 C.2     1  UNL1        0.2507
      3 N          62.6158   84.9396   10.7365 N.am    1  UNL1       -0.2723
      4 C          63.2396   83.9113    9.8401 C.3     1  UNL1        0.1257
      5 C          63.4927   84.2294    8.3962 C.3     1  UNL1        0.1637
      6 O          63.1220   85.5758    7.8487 O.3     1  UNL1       -0.3502
      7 C          62.4982   86.6041    8.7451 C.3     1  UNL1        0.1622
      8 C          62.2451   86.2860   10.1889 C.3     1  UNL1        0.1097
      9 C          62.7334   83.2751   12.7279 C.ar    1  UNL1        0.0738
     10 C          62.5309   82.0447   11.8941 C.ar    1  UNL1        0.0175
     11 C          62.9016   80.6983   12.4416 C.ar    1  UNL1        0.0579
     12 CL         62.6992   79.4680   11.6078 Cl      1  UNL1       -0.0822
     13 C          63.4747   80.5823   13.8229 C.ar    1  UNL1        0.0130
     14 C          63.6771   81.8127   14.6567 C.ar    1  UNL1        0.0219
     15 C          63.3064   83.1590   14.1092 C.ar    1  UNL1        0.1073
     16 N          63.5088   84.3894   14.9430 N.ar    1  UNL1       -0.1477
     17 N          64.5431   85.4509   14.7118 N.ar    1  UNL1       -0.1447
     18 C          64.3860   86.4918   15.7803 C.ar    1  UNL1        0.1446
     19 C          63.2546   86.0737   16.6720 C.ar    1  UNL1        0.1446
     20 N          62.7125   84.7743   16.1545 N.ar    1  UNL1       -0.1447
     21 C          61.6212   87.3143   11.0853 C.3     1  UNL1        0.0510
     22 C          62.1806   88.7052   11.1340 C.ar    1  UNL1        0.0086
     23 C          62.9713   89.1541   12.3270 C.ar    1  UNL1        0.0189
     24 C          63.5308   90.5451   12.3758 C.ar    1  UNL1        0.1027
     25 C          63.2995   91.4871   11.2316 C.ar    1  UNL1        0.0232
     26 C          62.5087   91.0381   10.0386 C.ar    1  UNL1        0.0309
     27 C          61.9493   89.6472    9.9898 C.ar    1  UNL1        0.1363
     28 F          61.1586   89.1983    8.7969 F       1  UNL1       -0.2045
     29 N          64.3215   90.9940   13.5688 N.ar    1  UNL1       -0.1478
     30 N          63.7726   91.2706   14.9370 N.ar    1  UNL1       -0.1447
     31 C          64.9118   91.6927   15.8169 C.ar    1  UNL1        0.1446
     32 C          66.1648   91.6770   14.9923 C.ar    1  UNL1        0.1446
     33 N          65.7999   91.2451   13.6030 N.ar    1  UNL1       -0.1447
@<TRIPOS>BOND
     1     1     2    2
     2     2     9    1
     3     9    10   ar
     4    10    11   ar
     5    11    12    1
     6    11    13   ar
     7    13    14   ar
     8    14    15   ar
     9    15    16    1
    10    16    17   ar
    11    17    18   ar
    12    18    19   ar
    13    19    20   ar
    14     2     3   am
    15     3     4    1
    16     4     5    1
    17     5     6    1
    18     6     7    1
    19     7     8    1
    20     8    21    1
    21    21    22    1
    22    22    23   ar
    23    23    24   ar
    24    24    29    1
    25    29    30   ar
    26    30    31   ar
    27    31    32   ar
    28    32    33   ar
    29    24    25   ar
    30    25    26   ar
    31    26    27   ar
    32    27    28    1
    33    15     9   ar
    34    20    16   ar
    35     8     3    1
    36    27    22   ar
    37    33    29   ar
@<TRIPOS>MOLECULE
*****
 33 37 0 0 0
SMALL
GASTEIGER

@<TRIPOS>ATOM
      1 O          63.3011   88.4694   11.6440 O.2     1  UNL1       -0.2698
      2 C          63.2990   87.7199   12.9433 C.2     1  UNL1        0.2507
      3 N          63.2878   88.4704   14.2420 N.am    1  UNL1       -0.2723
      4 C          63.2858   87.7210   15.5414 C.3     1  UNL1        0.1257
      5 C          63.2746   88.4716   16.8401 C.3     1  UNL1        0.1637
      6 O          63.2654   89.9715   16.8394 O.3     1  UNL1       -0.3502
      7 C          63.2675   90.7210   15.5400 C.3     1  UNL1        0.1622
      8 C          63.2787   89.9705   14.2413 C.3     1  UNL1        0.1097
      9 C          63.3082   86.2199   12.9440 C.ar    1  UNL1        0.0738
     10 C          64.1019   85.4752   13.9762 C.ar    1  UNL1        0.0175
     11 C          64.1111   83.9753   13.9769 C.ar    1  UNL1        0.0579
     12 CL         64.9048   83.2306   15.0091 Cl      1  UNL1       -0.0822
     13 C          63.3266   83.2200   12.9454 C.ar    1  UNL1        0.0130
     14 C          62.5329   83.9647   11.9132 C.ar    1  UNL1        0.0219
     15 C          62.5237   85.4647   11.9125 C.ar    1  UNL1        0.1073
     16 N          61.7300   86.2093   10.8803 N.ar    1  UNL1       -0.1477
     17 N          60.5569   87.1052   11.1473 N.ar    1  UNL1       -0.1447
     18 C          60.0719   87.6385    9.8319 C.ar    1  UNL1        0.1446
     19 C          60.9452   87.0722    8.7518 C.ar    1  UNL1        0.1446
     20 N          61.9699   86.1889    9.3997 N.ar    1  UNL1       -0.1447
     21 C          63.2807   90.7199   12.9420 C.3     1  UNL1        0.0510
     22 C          64.4798   91.5286   12.5445 C.ar    1  UNL1        0.0086
     23 C          65.5317   91.8596   13.5612 C.ar    1  UNL1        0.0189
     24 C          66.7309   92.6684   13.1638 C.ar    1  UNL1        0.1027
     25 C          66.8781   93.1461   11.7495 C.ar    1  UNL1        0.0232
     26 C          65.8261   92.8150   10.7327 C.ar    1  UNL1        0.0309
     27 C          64.6270   92.0063   11.1302 C.ar    1  UNL1        0.1363
     28 F          63.5751   91.6753   10.1134 F       1  UNL1       -0.2045
     29 N          67.7828   92.9994   14.1806 N.ar    1  UNL1       -0.1478
     30 N          67.6107   93.9038   15.3648 N.ar    1  UNL1       -0.1447
     31 C          68.9130   93.9475   16.1078 C.ar    1  UNL1        0.1446
     32 C          69.8901   93.0702   15.3827 C.ar    1  UNL1        0.1446
     33 N          69.1915   92.4842   14.1916 N.ar    1  UNL1       -0.1447
@<TRIPOS>BOND
     1     1     2    2
     2     2     9    1
     3     9    10   ar
     4    10    11   ar
     5    11    12    1
     6    11    13   ar
     7    13    14   ar
     8    14    15   ar
     9    15    16    1
    10    16    17   ar
    11    17    18   ar
    12    18    19   ar
    13    19    20   ar
    14     2     3   am
    15     3     4    1
    16     4     5    1
    17     5     6    1
    18     6     7    1
    19     7     8    1
    20     8    21    1
    21    21    22    1
    22    22    23   ar
    23    23    24   ar
    24    24    29    1
    25    29    30   ar
    26    30    31   ar
    27    31    32   ar
    28    32    33   ar
    29    24    25   ar
    30    25    26   ar
    31    26    27   ar
    32    27    28    1
    33    15     9   ar
    34    20    16   ar
    35     8     3    1
    36    27    22   ar
    37    33    29   ar
@<TRIPOS>MOLECULE
*****
 33 37 0 0 0
SMALL
GASTEIGER

@<TRIPOS>ATOM
      1 O          63.8152   91.4725   11.8025 O.2     1  UNL1       -0.2698
      2 C          64.3451   90.8259   13.0480 C.2     1  UNL1        0.2507
      3 N          64.1036   89.3665   13.2963 N.am    1  UNL1       -0.2723
      4 C          64.6335   88.7199   14.5417 C.3     1  UNL1        0.1257
      5 C          64.3920   87.2603   14.7900 C.3     1  UNL1        0.1637
      6 O          63.6206   86.4475   13.7928 O.3     1  UNL1       -0.3502
      7 C          63.0907   87.0942   12.5474 C.3     1  UNL1        0.1622
      8 C          63.3322   88.5536   12.2991 C.3     1  UNL1        0.1097
      9 C          65.1164   91.6388   14.0451 C.ar    1  UNL1        0.0738
     10 C          64.7030   91.6464   15.4870 C.ar    1  UNL1        0.0175
     11 C          65.4743   92.4592   16.4841 C.ar    1  UNL1        0.0579
     12 CL         65.0608   92.4668   17.9260 Cl      1  UNL1       -0.0822
     13 C          66.6591   93.2645   16.0394 C.ar    1  UNL1        0.0130
     14 C          67.0725   93.2569   14.5975 C.ar    1  UNL1        0.0219
     15 C          66.3012   92.4440   13.6004 C.ar    1  UNL1        0.1073
     16 N          66.7147   92.4364   12.1585 N.ar    1  UNL1       -0.1477
     17 N          67.9375   91.7749   11.5954 N.ar    1  UNL1       -0.1447
     18 C          67.9565   92.0187   10.1155 C.ar    1  UNL1        0.1446
     19 C          66.7454   92.8309    9.7639 C.ar    1  UNL1        0.1446
     20 N          65.9780   93.0890   11.0266 N.ar    1  UNL1       -0.1447
     21 C          62.8023   89.2002   11.0537 C.3     1  UNL1        0.0510
     22 C          61.7297   88.5216   10.2544 C.ar    1  UNL1        0.0086
     23 C          62.0930   87.4509    9.2686 C.ar    1  UNL1        0.0189
     24 C          61.0204   86.7722    8.4692 C.ar    1  UNL1        0.1027
     25 C          59.5845   87.1642    8.6557 C.ar    1  UNL1        0.0232
     26 C          59.2213   88.2349    9.6415 C.ar    1  UNL1        0.0309
     27 C          60.2939   88.9136   10.4408 C.ar    1  UNL1        0.1363
     28 F          59.9307   89.9842   11.4265 F       1  UNL1       -0.2045
     29 N          61.3836   85.7016    7.4835 N.ar    1  UNL1       -0.1478
     30 N          62.7590   85.1526    7.2450 N.ar    1  UNL1       -0.1447
     31 C          62.6607   84.1036    6.1773 C.ar    1  UNL1        0.1446
     32 C          61.2245   84.0043    5.7558 C.ar    1  UNL1        0.1446
     33 N          60.4352   84.9919    6.5631 N.ar    1  UNL1       -0.1447
@<TRIPOS>BOND
     1     1     2    2
     2     2     9    1
     3     9    10   ar
     4    10    11   ar
     5    11    12    1
     6    11    13   ar
     7    13    14   ar
     8    14    15   ar
     9    15    16    1
    10    16    17   ar
    11    17    18   ar
    12    18    19   ar
    13    19    20   ar
    14     2     3   am
    15     3     4    1
    16     4     5    1
    17     5     6    1
    18     6     7    1
    19     7     8    1
    20     8    21    1
    21    21    22    1
    22    22    23   ar
    23    23    24   ar
    24    24    29    1
    25    29    30   ar
    26    30    31   ar
    27    31    32   ar
    28    32    33   ar
    29    24    25   ar
    30    25    26   ar
    31    26    27   ar
    32    27    28    1
    33    15     9   ar
    34    20    16   ar
    35     8     3    1
    36    27    22   ar
    37    33    29   ar
