@<TRIPOS>MOLECULE
*****
 31 33 0 0 0
SMALL
GASTEIGER

@<TRIPOS>ATOM
      1 N          63.4689   86.4600   12.7295 N.am    1  UNL1       -0.2806
      2 C          63.7764   87.3665   13.8843 C.2     1  UNL1        0.2495
      3 O          63.7099   86.8419   15.2881 O.2     1  UNL1       -0.2698
      4 H          63.5126   86.8044   11.8082 H       1  UNL1        0.1552
      5 C          62.3465   82.1667   13.4759 C.ar    1  UNL1       -0.0230
      6 C          62.6358   83.0780   14.6316 C.ar    1  UNL1       -0.0030
      7 C          63.0099   84.5092   14.3828 C.ar    1  UNL1        0.0140
      8 C          63.0948   85.0289   12.9783 C.ar    1  UNL1        0.0465
      9 C          62.8055   84.1175   11.8226 C.ar    1  UNL1       -0.0096
     10 C          62.4314   82.6864   12.0714 C.ar    1  UNL1       -0.0074
     11 C          60.5943   81.1664   14.1310 C.3     1  UNL1        0.0044
     12 C          61.9724   80.7355   13.7247 C.3     1  UNL1        0.0189
     13 C          63.3505   80.3046   13.3184 C.3     1  UNL1        0.0044
     14 C          61.5983   79.3044   13.9735 C.3     1  UNL1        0.0044
     15 C          62.8903   84.6373   10.4180 C.3     1  UNL1        0.0201
     16 C          64.0492   83.7235   10.1499 C.3     1  UNL1        0.0044
     17 C          61.7315   85.5510   10.6862 C.3     1  UNL1        0.0044
     18 C          62.9751   85.1570    9.0136 C.3     1  UNL1        0.0044
     19 C          64.1506   88.7976   13.6356 C.ar    1  UNL1        0.0537
     20 C          65.0951   89.4986   14.5663 C.ar    1  UNL1        0.0042
     21 C          65.4693   90.9297   14.3175 C.ar    1  UNL1       -0.0028
     22 C          64.8988   91.6599   13.1380 C.ar    1  UNL1       -0.0061
     23 C          63.9542   90.9589   12.2071 C.ar    1  UNL1       -0.0028
     24 C          63.5801   89.5278   12.4559 C.ar    1  UNL1        0.0042
     25 C          65.2730   93.0910   12.8892 C.3     1  UNL1        0.0991
     26 N          66.1123   93.4508   11.6992 N.3     1  UNL1       -0.2690
     27 C          66.1384   94.8650   11.1999 C.3     1  UNL1        0.0724
     28 C          66.9777   95.2249   10.0099 C.3     1  UNL1        0.0174
     29 C          67.7909   94.1705    9.3192 C.3     1  UNL1        0.0029
     30 C          67.7647   92.7563    9.8185 C.3     1  UNL1        0.0174
     31 C          66.9254   92.3964   11.0085 C.3     1  UNL1        0.0724
@<TRIPOS>BOND
     1    11    12    1
     2    12    13    1
     3    12    14    1
     4    12     5    1
     5     5     6   ar
     6     6     7   ar
     7     7     8   ar
     8     8     1    1
     9     1     2   am
    10     2     3    2
    11     2    19    1
    12    19    20   ar
    13    20    21   ar
    14    21    22   ar
    15    22    25    1
    16    25    26    1
    17    26    27    1
    18    27    28    1
    19    28    29    1
    20    29    30    1
    21    30    31    1
    22    22    23   ar
    23    23    24   ar
    24     8     9   ar
    25     9    15    1
    26    15    16    1
    27    15    17    1
    28    15    18    1
    29     9    10   ar
    30    10     5   ar
    31    24    19   ar
    32    31    26    1
    33     1     4    1
@<TRIPOS>MOLECULE
*****
 31 33 0 0 0
SMALL
GASTEIGER

@<TRIPOS>ATOM
      1 N          63.6176   86.3125   12.8214 N.am    1  UNL1       -0.2806
      2 C          62.7308   87.2870   12.1047 C.2     1  UNL1        0.2495
      3 O          61.4148   86.8329   11.5459 O.2     1  UNL1       -0.2698
      4 H          64.4813   86.6105   13.1882 H       1  UNL1        0.1552
      5 C          62.3305   82.0266   13.2955 C.ar    1  UNL1       -0.0230
      6 C          62.5053   82.6100   11.9248 C.ar    1  UNL1       -0.0030
      7 C          62.9343   84.0386   11.7667 C.ar    1  UNL1        0.0140
      8 C          63.1886   84.8839   12.9795 C.ar    1  UNL1        0.0465
      9 C          63.0138   84.3005   14.3503 C.ar    1  UNL1       -0.0096
     10 C          62.5847   82.8719   14.5083 C.ar    1  UNL1       -0.0074
     11 C          60.6650   81.0489   14.1731 C.3     1  UNL1        0.0044
     12 C          61.9015   80.5980   13.4536 C.3     1  UNL1        0.0189
     13 C          63.1379   80.1471   12.7340 C.3     1  UNL1        0.0044
     14 C          61.4724   79.1694   13.6116 C.3     1  UNL1        0.0044
     15 C          63.2680   85.1458   15.5631 C.3     1  UNL1        0.0201
     16 C          61.8194   85.0431   15.9384 C.3     1  UNL1        0.0044
     17 C          64.7166   85.2486   15.1878 C.3     1  UNL1        0.0044
     18 C          63.5222   85.9911   16.7759 C.3     1  UNL1        0.0044
     19 C          63.1598   88.7156   11.9467 C.ar    1  UNL1        0.0537
     20 C          63.8494   89.4210   13.0766 C.ar    1  UNL1        0.0042
     21 C          64.2784   90.8496   12.9186 C.ar    1  UNL1       -0.0028
     22 C          64.0179   91.5729   11.6306 C.ar    1  UNL1       -0.0061
     23 C          63.3282   90.8675   10.5005 C.ar    1  UNL1       -0.0028
     24 C          62.8992   89.4389   10.6586 C.ar    1  UNL1        0.0042
     25 C          64.4469   93.0015   11.4726 C.3     1  UNL1        0.0991
     26 N          65.7155   93.3271   10.7415 N.3     1  UNL1       -0.2690
     27 C          65.9802   94.7321   10.2879 C.3     1  UNL1        0.0724
     28 C          67.2489   95.0578    9.5568 C.3     1  UNL1        0.0174
     29 C          68.2528   93.9784    9.2793 C.3     1  UNL1        0.0029
     30 C          67.9881   92.5733    9.7329 C.3     1  UNL1        0.0174
     31 C          66.7195   92.2477   10.4640 C.3     1  UNL1        0.0724
@<TRIPOS>BOND
     1    11    12    1
     2    12    13    1
     3    12    14    1
     4    12     5    1
     5     5     6   ar
     6     6     7   ar
     7     7     8   ar
     8     8     1    1
     9     1     2   am
    10     2     3    2
    11     2    19    1
    12    19    20   ar
    13    20    21   ar
    14    21    22   ar
    15    22    25    1
    16    25    26    1
    17    26    27    1
    18    27    28    1
    19    28    29    1
    20    29    30    1
    21    30    31    1
    22    22    23   ar
    23    23    24   ar
    24     8     9   ar
    25     9    15    1
    26    15    16    1
    27    15    17    1
    28    15    18    1
    29     9    10   ar
    30    10     5   ar
    31    24    19   ar
    32    31    26    1
    33     1     4    1
@<TRIPOS>MOLECULE
*****
 31 33 0 0 0
SMALL
GASTEIGER

@<TRIPOS>ATOM
      1 N          63.8575   88.5218   12.4109 N.am    1  UNL1       -0.2806
      2 C          64.4640   89.4012   13.4638 C.2     1  UNL1        0.2495
      3 O          64.6603   88.8783   14.8560 O.2     1  UNL1       -0.2698
      4 H          63.7287   88.8650   11.4971 H       1  UNL1        0.1552
      5 C          62.6267   84.3147   13.4284 C.ar    1  UNL1       -0.0230
      6 C          63.6212   85.0344   14.2903 C.ar    1  UNL1       -0.0030
      7 C          64.0315   86.4368   13.9511 C.ar    1  UNL1        0.0140
      8 C          63.4472   87.1194   12.7500 C.ar    1  UNL1        0.0465
      9 C          62.4527   86.3997   11.8882 C.ar    1  UNL1       -0.0096
     10 C          62.0425   84.9973   12.2273 C.ar    1  UNL1       -0.0074
     11 C          62.5702   82.4727   12.3778 C.3     1  UNL1        0.0044
     12 C          62.2164   82.9123   13.7676 C.3     1  UNL1        0.0189
     13 C          61.8627   83.3520   15.1574 C.3     1  UNL1        0.0044
     14 C          61.8061   81.5100   14.1068 C.3     1  UNL1        0.0044
     15 C          61.8684   87.0823   10.6870 C.3     1  UNL1        0.0201
     16 C          61.1073   88.0116   11.5853 C.3     1  UNL1        0.0044
     17 C          62.6296   86.1531    9.7887 C.3     1  UNL1        0.0044
     18 C          61.2842   87.7649    9.4859 C.3     1  UNL1        0.0044
     19 C          64.8743   90.8036   13.1246 C.ar    1  UNL1        0.0537
     20 C          65.7338   91.5841   14.0743 C.ar    1  UNL1        0.0042
     21 C          66.1441   92.9864   13.7351 C.ar    1  UNL1       -0.0028
     22 C          65.6948   93.6083   12.4462 C.ar    1  UNL1       -0.0061
     23 C          64.8353   92.8279   11.4964 C.ar    1  UNL1       -0.0028
     24 C          64.4250   91.4255   11.8356 C.ar    1  UNL1        0.0042
     25 C          66.1051   95.0107   12.1070 C.3     1  UNL1        0.0991
     26 N          66.2683   95.4183   10.6727 N.3     1  UNL1       -0.2690
     27 C          67.3484   94.7998    9.8356 C.3     1  UNL1        0.0724
     28 C          67.5116   95.2074    8.4012 C.3     1  UNL1        0.0174
     29 C          66.5947   96.2334    7.8041 C.3     1  UNL1        0.0029
     30 C          65.5146   96.8519    8.6413 C.3     1  UNL1        0.0174
     31 C          65.3514   96.4443   10.0756 C.3     1  UNL1        0.0724
@<TRIPOS>BOND
     1    11    12    1
     2    12    13    1
     3    12    14    1
     4    12     5    1
     5     5     6   ar
     6     6     7   ar
     7     7     8   ar
     8     8     1    1
     9     1     2   am
    10     2     3    2
    11     2    19    1
    12    19    20   ar
    13    20    21   ar
    14    21    22   ar
    15    22    25    1
    16    25    26    1
    17    26    27    1
    18    27    28    1
    19    28    29    1
    20    29    30    1
    21    30    31    1
    22    22    23   ar
    23    23    24   ar
    24     8     9   ar
    25     9    15    1
    26    15    16    1
    27    15    17    1
    28    15    18    1
    29     9    10   ar
    30    10     5   ar
    31    24    19   ar
    32    31    26    1
    33     1     4    1
@<TRIPOS>MOLECULE
*****
 31 33 0 0 0
SMALL
GASTEIGER

@<TRIPOS>ATOM
      1 N          65.3508   90.2073   13.2165 N.am    1  UNL1       -0.2806
      2 C          64.0070   89.5456   13.1384 C.2     1  UNL1        0.2495
      3 O          62.8840   90.2130   12.4010 O.2     1  UNL1       -0.2698
      4 H          66.0878   89.7693   13.7005 H       1  UNL1        0.1552
      5 C          66.0139   94.1945   11.2385 C.ar    1  UNL1       -0.0230
      6 C          65.0859   93.1937   10.6163 C.ar    1  UNL1       -0.0030
      7 C          64.8649   91.8646   11.2756 C.ar    1  UNL1        0.0140
      8 C          65.5718   91.5364   12.5572 C.ar    1  UNL1        0.0465
      9 C          66.4998   92.5372   13.1794 C.ar    1  UNL1       -0.0096
     10 C          66.7208   93.8663   12.5201 C.ar    1  UNL1       -0.0074
     11 C          65.7910   96.2189   11.8320 C.3     1  UNL1        0.0044
     12 C          66.2349   95.5236   10.5792 C.3     1  UNL1        0.0189
     13 C          66.6788   94.8283    9.3264 C.3     1  UNL1        0.0044
     14 C          66.4559   96.8527    9.9198 C.3     1  UNL1        0.0044
     15 C          67.2068   92.2090   14.4611 C.3     1  UNL1        0.0201
     16 C          66.0165   92.6854   15.2397 C.3     1  UNL1        0.0044
     17 C          68.3970   91.7326   13.6824 C.3     1  UNL1        0.0044
     18 C          67.9138   91.8808   15.7426 C.3     1  UNL1        0.0044
     19 C          63.7860   88.2165   13.7978 C.ar    1  UNL1        0.0537
     20 C          63.8792   88.0948   15.2899 C.ar    1  UNL1        0.0042
     21 C          63.6581   86.7657   15.9492 C.ar    1  UNL1       -0.0028
     22 C          63.3439   85.5584   15.1164 C.ar    1  UNL1       -0.0061
     23 C          63.2507   85.6801   13.6242 C.ar    1  UNL1       -0.0028
     24 C          63.4718   87.0092   12.9649 C.ar    1  UNL1        0.0042
     25 C          63.1229   84.2293   15.7758 C.3     1  UNL1        0.0991
     26 N          62.9665   82.9940   14.9395 N.3     1  UNL1       -0.2690
     27 C          64.1630   82.3842   14.2713 C.3     1  UNL1        0.0724
     28 C          64.0065   81.1488   13.4349 C.3     1  UNL1        0.0174
     29 C          62.6536   80.5233   13.2668 C.3     1  UNL1        0.0029
     30 C          61.4571   81.1332   13.9350 C.3     1  UNL1        0.0174
     31 C          61.6135   82.3685   14.7713 C.3     1  UNL1        0.0724
@<TRIPOS>BOND
     1    11    12    1
     2    12    13    1
     3    12    14    1
     4    12     5    1
     5     5     6   ar
     6     6     7   ar
     7     7     8   ar
     8     8     1    1
     9     1     2   am
    10     2     3    2
    11     2    19    1
    12    19    20   ar
    13    20    21   ar
    14    21    22   ar
    15    22    25    1
    16    25    26    1
    17    26    27    1
    18    27    28    1
    19    28    29    1
    20    29    30    1
    21    30    31    1
    22    22    23   ar
    23    23    24   ar
    24     8     9   ar
    25     9    15    1
    26    15    16    1
    27    15    17    1
    28    15    18    1
    29     9    10   ar
    30    10     5   ar
    31    24    19   ar
    32    31    26    1
    33     1     4    1
