@<TRIPOS>MOLECULE
*****
 40 45 0 0 0
SMALL
GASTEIGER

@<TRIPOS>ATOM
      1 O          58.2169   87.4488    6.9509 O.2     1  UNL1       -0.2749
      2 C          59.2103   88.5370    7.2312 C.2     1  UNL1        0.2252
      3 N          60.0972   88.4502    8.4378 N.am    1  UNL1       -0.2794
      4 C          59.9906   87.2751    9.3640 C.3     1  UNL1        0.0953
      5 C          60.8775   87.1883   10.5706 C.3     1  UNL1        0.0442
      6 C          61.8711   88.2766   10.8511 C.3     1  UNL1        0.0933
      7 C          61.9776   89.4516    9.9249 C.3     1  UNL1        0.0442
      8 C          61.0907   89.5385    8.7183 C.3     1  UNL1        0.0953
      9 N          62.7579   88.1898   12.0577 N.ar    1  UNL1       -0.2817
     10 C          63.1003   86.9394   12.8121 C.ar    1  UNL1        0.3316
     11 O          62.6158   85.5562   12.4925 O.2     1  UNL1       -0.2463
     12 N          64.0121   87.3150   13.9424 N.ar    1  UNL1       -0.2761
     13 C          64.2333   88.7975   13.8865 C.ar    1  UNL1        0.0798
     14 C          65.0404   89.7250   14.7457 C.ar    1  UNL1        0.0188
     15 C          65.0723   91.1932   14.4401 C.ar    1  UNL1        0.0016
     16 C          64.2972   91.7338   13.2753 C.ar    1  UNL1        0.0016
     17 C          63.4901   90.8064   12.4161 C.ar    1  UNL1        0.0188
     18 C          63.4582   89.3382   12.7216 C.ar    1  UNL1        0.0796
     19 C          64.5996   86.3734   14.9515 C.3     1  UNL1        0.1577
     20 C          63.7212   85.3758   15.6470 C.3     1  UNL1        0.2299
     21 O          64.0506   83.9138   15.5836 O.3     1  UNL1       -0.4734
     22 C          63.6486   83.1058   14.3855 C.ar    1  UNL1        0.1386
     23 C          64.5224   83.0862   13.1665 C.ar    1  UNL1        0.0369
     24 C          64.1203   82.2781   11.9684 C.ar    1  UNL1        0.0031
     25 C          62.8443   81.4896   11.9893 C.ar    1  UNL1        0.0002
     26 C          61.9705   81.5093   13.2084 C.ar    1  UNL1        0.0031
     27 C          62.3726   82.3174   14.4065 C.ar    1  UNL1        0.0369
     28 C          59.3170   89.7121    6.3050 C.3     1  UNL1        0.0795
     29 C          58.0954   90.5147    5.9680 C.3     1  UNL1        0.0264
     30 C          58.2020   91.6897    5.0418 C.3     1  UNL1        0.0729
     31 N          59.5302   92.0623    4.4527 N.3     1  UNL1       -0.2689
     32 C          60.7519   91.2596    4.7898 C.3     1  UNL1        0.0729
     33 C          60.6452   90.0846    5.7159 C.3     1  UNL1        0.0264
     34 C          59.6368   93.2373    3.5265 C.3     1  UNL1        0.0992
     35 C          60.2273   93.0631    2.1587 C.ar    1  UNL1       -0.0031
     36 C          59.3369   92.7583    0.9907 C.ar    1  UNL1        0.0178
     37 C          59.9274   92.5841   -0.3771 C.ar    1  UNL1        0.0986
     38 N          61.4082   92.7147   -0.5769 N.ar    1  UNL1       -0.2423
     39 C          62.2987   93.0195    0.5911 C.ar    1  UNL1        0.0986
     40 C          61.7082   93.1937    1.9589 C.ar    1  UNL1        0.0178
@<TRIPOS>BOND
     1     1     2    2
     2     2    28    1
     3    28    29    1
     4    29    30    1
     5    30    31    1
     6    31    34    1
     7    34    35    1
     8    35    36   ar
     9    36    37   ar
    10    37    38   ar
    11    38    39   ar
    12    39    40   ar
    13    31    32    1
    14    32    33    1
    15     2     3   am
    16     3     4    1
    17     4     5    1
    18     5     6    1
    19     6     9    1
    20     9    10   ar
    21    10    11    2
    22    10    12   ar
    23    12    19    1
    24    19    20    1
    25    20    21    1
    26    21    22    1
    27    22    23   ar
    28    23    24   ar
    29    24    25   ar
    30    25    26   ar
    31    26    27   ar
    32    12    13   ar
    33    13    14   ar
    34    14    15   ar
    35    15    16   ar
    36    16    17   ar
    37    17    18   ar
    38     6     7    1
    39     7     8    1
    40    33    28    1
    41     8     3    1
    42    40    35   ar
    43    18     9   ar
    44    27    22   ar
    45    18    13   ar
@<TRIPOS>MOLECULE
*****
 40 45 0 0 0
SMALL
GASTEIGER

@<TRIPOS>ATOM
      1 O          58.4327   87.4203    7.1099 O.2     1  UNL1       -0.2749
      2 C          59.3327   88.6006    7.3260 C.2     1  UNL1        0.2252
      3 N          60.2224   88.6543    8.5325 N.am    1  UNL1       -0.2794
      4 C          60.2120   87.5276    9.5228 C.3     1  UNL1        0.0953
      5 C          61.1017   87.5813   10.7293 C.3     1  UNL1        0.0442
      6 C          62.0018   88.7617   10.9455 C.3     1  UNL1        0.0933
      7 C          62.0122   89.8882    9.9552 C.3     1  UNL1        0.0442
      8 C          61.1225   89.8345    8.7487 C.3     1  UNL1        0.0953
      9 N          62.8915   88.8154   12.1520 N.ar    1  UNL1       -0.2817
     10 C          63.4598   90.0564   12.7739 C.ar    1  UNL1        0.3316
     11 O          63.2382   91.4618   12.2985 O.2     1  UNL1       -0.2463
     12 N          64.2886   89.6454   13.9546 N.ar    1  UNL1       -0.2761
     13 C          64.2325   88.1504   14.0625 C.ar    1  UNL1        0.0798
     14 C          64.8561   87.1899   15.0312 C.ar    1  UNL1        0.0188
     15 C          64.6162   85.7164   14.8859 C.ar    1  UNL1        0.0016
     16 C          63.7528   85.2033   13.7717 C.ar    1  UNL1        0.0016
     17 C          63.1292   86.1638   12.8030 C.ar    1  UNL1        0.0188
     18 C          63.3690   87.6373   12.9484 C.ar    1  UNL1        0.0796
     19 C          65.0413   90.5676   14.8673 C.3     1  UNL1        0.1577
     20 C          66.1499   91.4200   14.3244 C.3     1  UNL1        0.2299
     21 O          65.8488   92.7854   13.7811 O.3     1  UNL1       -0.4734
     22 C          66.3411   93.1758   12.4191 C.ar    1  UNL1        0.1386
     23 C          67.0338   92.1653   11.5538 C.ar    1  UNL1        0.0369
     24 C          67.5260   92.5558   10.1917 C.ar    1  UNL1        0.0031
     25 C          67.3256   93.9569    9.6950 C.ar    1  UNL1        0.0002
     26 C          66.6329   94.9675   10.5603 C.ar    1  UNL1        0.0031
     27 C          66.1406   94.5770   11.9224 C.ar    1  UNL1        0.0369
     28 C          59.3431   89.7272    6.3358 C.3     1  UNL1        0.0795
     29 C          60.6313   90.1493    5.6935 C.3     1  UNL1        0.0264
     30 C          60.6417   91.2759    4.7033 C.3     1  UNL1        0.0729
     31 N          59.3640   91.9804    4.3552 N.3     1  UNL1       -0.2689
     32 C          58.0757   91.5582    4.9975 C.3     1  UNL1        0.0729
     33 C          58.0653   90.4316    5.9878 C.3     1  UNL1        0.0264
     34 C          59.3744   93.1070    3.3650 C.3     1  UNL1        0.0992
     35 C          60.1628   92.9822    2.0951 C.ar    1  UNL1       -0.0031
     36 C          59.4634   92.6677    0.8059 C.ar    1  UNL1        0.0178
     37 C          60.2519   92.5428   -0.4640 C.ar    1  UNL1        0.0986
     38 N          61.7397   92.7324   -0.4448 N.ar    1  UNL1       -0.2423
     39 C          62.4391   93.0469    0.8444 C.ar    1  UNL1        0.0986
     40 C          61.6507   93.1718    2.1143 C.ar    1  UNL1        0.0178
@<TRIPOS>BOND
     1     1     2    2
     2     2    28    1
     3    28    29    1
     4    29    30    1
     5    30    31    1
     6    31    34    1
     7    34    35    1
     8    35    36   ar
     9    36    37   ar
    10    37    38   ar
    11    38    39   ar
    12    39    40   ar
    13    31    32    1
    14    32    33    1
    15     2     3   am
    16     3     4    1
    17     4     5    1
    18     5     6    1
    19     6     9    1
    20     9    10   ar
    21    10    11    2
    22    10    12   ar
    23    12    19    1
    24    19    20    1
    25    20    21    1
    26    21    22    1
    27    22    23   ar
    28    23    24   ar
    29    24    25   ar
    30    25    26   ar
    31    26    27   ar
    32    12    13   ar
    33    13    14   ar
    34    14    15   ar
    35    15    16   ar
    36    16    17   ar
    37    17    18   ar
    38     6     7    1
    39     7     8    1
    40    33    28    1
    41     8     3    1
    42    40    35   ar
    43    18     9   ar
    44    27    22   ar
    45    18    13   ar
@<TRIPOS>MOLECULE
*****
 40 45 0 0 0
SMALL
GASTEIGER

@<TRIPOS>ATOM
      1 O          58.3056   87.3676    6.9526 O.2     1  UNL1       -0.2749
      2 C          59.2598   88.4863    7.2489 C.2     1  UNL1        0.2252
      3 N          60.1253   88.4295    8.4727 N.am    1  UNL1       -0.2794
      4 C          60.0365   87.2539    9.4002 C.3     1  UNL1        0.0953
      5 C          60.9019   87.1971   10.6240 C.3     1  UNL1        0.0442
      6 C          61.8563   88.3158   10.9204 C.3     1  UNL1        0.0933
      7 C          61.9451   89.4913    9.9929 C.3     1  UNL1        0.0442
      8 C          61.0796   89.5481    8.7691 C.3     1  UNL1        0.0953
      9 N          62.7218   88.2589   12.1442 N.ar    1  UNL1       -0.2817
     10 C          63.2141   89.4370   12.9314 C.ar    1  UNL1        0.3316
     11 O          62.9274   90.8788   12.6331 O.2     1  UNL1       -0.2463
     12 N          64.0435   88.9201   14.0694 N.ar    1  UNL1       -0.2761
     13 C          64.0637   87.4226   13.9855 C.ar    1  UNL1        0.0798
     14 C          64.7204   86.3783   14.8388 C.ar    1  UNL1        0.0188
     15 C          64.5603   84.9254   14.5022 C.ar    1  UNL1        0.0016
     16 C          63.7434   84.5168   13.3124 C.ar    1  UNL1        0.0016
     17 C          63.0867   85.5610   12.4591 C.ar    1  UNL1        0.0188
     18 C          63.2469   87.0140   12.7956 C.ar    1  UNL1        0.0796
     19 C          64.7318   89.7543   15.1088 C.3     1  UNL1        0.1577
     20 C          64.0648   90.9869   15.6436 C.3     1  UNL1        0.2299
     21 O          64.7970   92.2961   15.6430 O.3     1  UNL1       -0.4734
     22 C          66.2496   92.3427   15.2720 C.ar    1  UNL1        0.1386
     23 C          67.2693   92.7698   16.2857 C.ar    1  UNL1        0.0369
     24 C          68.7219   92.8164   15.9146 C.ar    1  UNL1        0.0031
     25 C          69.1549   92.4360   14.5297 C.ar    1  UNL1        0.0002
     26 C          68.1351   92.0089   13.5160 C.ar    1  UNL1        0.0031
     27 C          66.6824   91.9623   13.8871 C.ar    1  UNL1        0.0369
     28 C          59.3487   89.6619    6.3214 C.3     1  UNL1        0.0795
     29 C          60.6681   90.0436    5.7187 C.3     1  UNL1        0.0264
     30 C          60.7570   91.2191    4.7912 C.3     1  UNL1        0.0729
     31 N          59.5264   92.0129    4.4665 N.3     1  UNL1       -0.2689
     32 C          58.2068   91.6312    5.0693 C.3     1  UNL1        0.0729
     33 C          58.1180   90.4557    5.9968 C.3     1  UNL1        0.0264
     34 C          59.6152   93.1885    3.5390 C.3     1  UNL1        0.0992
     35 C          60.2245   93.0257    2.1781 C.ar    1  UNL1       -0.0031
     36 C          61.7068   93.1686    1.9980 C.ar    1  UNL1        0.0178
     37 C          62.3161   93.0059    0.6371 C.ar    1  UNL1        0.0986
     38 N          61.4432   92.7003   -0.5438 N.ar    1  UNL1       -0.2423
     39 C          59.9609   92.5573   -0.3638 C.ar    1  UNL1        0.0986
     40 C          59.3516   92.7201    0.9972 C.ar    1  UNL1        0.0178
@<TRIPOS>BOND
     1     1     2    2
     2     2    28    1
     3    28    29    1
     4    29    30    1
     5    30    31    1
     6    31    34    1
     7    34    35    1
     8    35    36   ar
     9    36    37   ar
    10    37    38   ar
    11    38    39   ar
    12    39    40   ar
    13    31    32    1
    14    32    33    1
    15     2     3   am
    16     3     4    1
    17     4     5    1
    18     5     6    1
    19     6     9    1
    20     9    10   ar
    21    10    11    2
    22    10    12   ar
    23    12    19    1
    24    19    20    1
    25    20    21    1
    26    21    22    1
    27    22    23   ar
    28    23    24   ar
    29    24    25   ar
    30    25    26   ar
    31    26    27   ar
    32    12    13   ar
    33    13    14   ar
    34    14    15   ar
    35    15    16   ar
    36    16    17   ar
    37    17    18   ar
    38     6     7    1
    39     7     8    1
    40    33    28    1
    41     8     3    1
    42    40    35   ar
    43    18     9   ar
    44    27    22   ar
    45    18    13   ar
@<TRIPOS>MOLECULE
*****
 40 45 0 0 0
SMALL
GASTEIGER

@<TRIPOS>ATOM
      1 O          61.9000   86.3519   17.9409 O.2     1  UNL1       -0.2749
      2 C          62.7002   86.2535   16.6760 C.2     1  UNL1        0.2252
      3 N          63.3138   87.4853   16.0791 N.am    1  UNL1       -0.2794
      4 C          63.1271   88.8153   16.7471 C.3     1  UNL1        0.0953
      5 C          63.7407   90.0471   16.1502 C.3     1  UNL1        0.0442
      6 C          64.5410   89.9488   14.8852 C.3     1  UNL1        0.0933
      7 C          64.7275   88.6188   14.2173 C.3     1  UNL1        0.0442
      8 C          64.1139   87.3871   14.8142 C.3     1  UNL1        0.0953
      9 N          65.1545   91.1806   14.2883 N.ar    1  UNL1       -0.2817
     10 C          64.7673   91.8160   12.9859 C.ar    1  UNL1        0.3316
     11 O          63.6986   91.3312   12.0517 O.2     1  UNL1       -0.2463
     12 N          65.6366   93.0213   12.7817 N.ar    1  UNL1       -0.2761
     13 C          66.5610   93.1308   13.9580 C.ar    1  UNL1        0.0798
     14 C          67.6355   94.1194   14.3014 C.ar    1  UNL1        0.0188
     15 C          68.4120   93.9704   15.5760 C.ar    1  UNL1        0.0016
     16 C          68.1141   92.8328   16.5072 C.ar    1  UNL1        0.0016
     17 C          67.0396   91.8441   16.1637 C.ar    1  UNL1        0.0188
     18 C          66.2630   91.9932   14.8891 C.ar    1  UNL1        0.0796
     19 C          65.5896   93.9535   11.6075 C.3     1  UNL1        0.1577
     20 C          66.0177   95.3823   11.7666 C.3     1  UNL1        0.2299
     21 O          66.9469   96.0028   10.7657 O.3     1  UNL1       -0.4734
     22 C          66.5993   95.9827    9.3067 C.ar    1  UNL1        0.1386
     23 C          67.3549   95.0895    8.3680 C.ar    1  UNL1        0.0369
     24 C          67.0072   95.0694    6.9090 C.ar    1  UNL1        0.0031
     25 C          65.9041   95.9426    6.3886 C.ar    1  UNL1        0.0002
     26 C          65.1486   96.8358    7.3274 C.ar    1  UNL1        0.0031
     27 C          65.4962   96.8559    8.7865 C.ar    1  UNL1        0.0369
     28 C          62.8868   84.9235   16.0080 C.3     1  UNL1        0.0795
     29 C          61.6971   84.1709   15.4900 C.3     1  UNL1        0.0264
     30 C          61.8838   82.8409   14.8220 C.3     1  UNL1        0.0729
     31 N          63.2600   82.2635   14.6720 N.3     1  UNL1       -0.2689
     32 C          64.4497   83.0162   15.1900 C.3     1  UNL1        0.0729
     33 C          64.2631   84.3462   15.8580 C.3     1  UNL1        0.0264
     34 C          63.4466   80.9335   14.0039 C.3     1  UNL1        0.0992
     35 C          63.3380   80.8217   12.5121 C.ar    1  UNL1       -0.0031
     36 C          63.7602   81.9678   11.6414 C.ar    1  UNL1        0.0178
     37 C          63.6516   81.8561   10.1495 C.ar    1  UNL1        0.0986
     38 N          63.1208   80.5981    9.5284 N.ar    1  UNL1       -0.2423
     39 C          62.6986   79.4520   10.3991 C.ar    1  UNL1        0.0986
     40 C          62.8072   79.5637   11.8909 C.ar    1  UNL1        0.0178
@<TRIPOS>BOND
     1     1     2    2
     2     2    28    1
     3    28    29    1
     4    29    30    1
     5    30    31    1
     6    31    34    1
     7    34    35    1
     8    35    36   ar
     9    36    37   ar
    10    37    38   ar
    11    38    39   ar
    12    39    40   ar
    13    31    32    1
    14    32    33    1
    15     2     3   am
    16     3     4    1
    17     4     5    1
    18     5     6    1
    19     6     9    1
    20     9    10   ar
    21    10    11    2
    22    10    12   ar
    23    12    19    1
    24    19    20    1
    25    20    21    1
    26    21    22    1
    27    22    23   ar
    28    23    24   ar
    29    24    25   ar
    30    25    26   ar
    31    26    27   ar
    32    12    13   ar
    33    13    14   ar
    34    14    15   ar
    35    15    16   ar
    36    16    17   ar
    37    17    18   ar
    38     6     7    1
    39     7     8    1
    40    33    28    1
    41     8     3    1
    42    40    35   ar
    43    18     9   ar
    44    27    22   ar
    45    18    13   ar
@<TRIPOS>MOLECULE
*****
 40 45 0 0 0
SMALL
GASTEIGER

@<TRIPOS>ATOM
      1 O          57.1320   90.8311    5.8591 O.2     1  UNL1       -0.2749
      2 C          58.6157   90.6114    5.8819 C.2     1  UNL1        0.2252
      3 N          59.4780   91.2031    4.8066 N.am    1  UNL1       -0.2794
      4 C          58.8567   92.0144    3.7085 C.3     1  UNL1        0.0953
      5 C          59.7190   92.6060    2.6332 C.3     1  UNL1        0.0442
      6 C          61.2027   92.3864    2.6559 C.3     1  UNL1        0.0933
      7 C          61.8239   91.5751    3.7539 C.3     1  UNL1        0.0442
      8 C          60.9616   90.9834    4.8293 C.3     1  UNL1        0.0953
      9 N          62.0650   92.9780    1.5805 N.ar    1  UNL1       -0.2817
     10 C          61.9403   92.7193    0.1083 C.ar    1  UNL1        0.3316
     11 O          60.9313   91.8235   -0.5471 O.2     1  UNL1       -0.2463
     12 N          63.0017   93.5137   -0.5934 N.ar    1  UNL1       -0.2761
     13 C          63.7824   94.2633    0.4451 C.ar    1  UNL1        0.0798
     14 C          64.9455   95.2046    0.3409 C.ar    1  UNL1        0.0188
     15 C          65.5299   95.8149    1.5803 C.ar    1  UNL1        0.0016
     16 C          64.9510   95.4838    2.9239 C.ar    1  UNL1        0.0016
     17 C          63.7878   94.5425    3.0281 C.ar    1  UNL1        0.0188
     18 C          63.2035   93.9323    1.7887 C.ar    1  UNL1        0.0796
     19 C          63.2405   93.5517   -2.0738 C.3     1  UNL1        0.1577
     20 C          62.1673   94.0537   -2.9940 C.3     1  UNL1        0.2299
     21 O          61.0776   94.9376   -2.4636 O.3     1  UNL1       -0.4734
     22 C          59.7037   94.3801   -2.2365 C.ar    1  UNL1        0.1386
     23 C          59.1261   93.3910   -3.2049 C.ar    1  UNL1        0.0369
     24 C          57.7522   92.8336   -2.9777 C.ar    1  UNL1        0.0031
     25 C          56.9558   93.2653   -1.7820 C.ar    1  UNL1        0.0002
     26 C          57.5335   94.2544   -0.8136 C.ar    1  UNL1        0.0031
     27 C          58.9075   94.8119   -1.0408 C.ar    1  UNL1        0.0369
     28 C          59.2370   89.8001    6.9799 C.3     1  UNL1        0.0795
     29 C          59.0161   88.3174    7.0339 C.3     1  UNL1        0.0264
     30 C          59.6374   87.5061    8.1320 C.3     1  UNL1        0.0729
     31 N          60.4796   88.1774    9.1760 N.3     1  UNL1       -0.2689
     32 C          60.7005   89.6602    9.1220 C.3     1  UNL1        0.0729
     33 C          60.0792   90.4715    8.0240 C.3     1  UNL1        0.0264
     34 C          61.1009   87.3661   10.2740 C.3     1  UNL1        0.0992
     35 C          61.9627   86.1852    9.9384 C.ar    1  UNL1       -0.0031
     36 C          62.3609   85.2178   11.0134 C.ar    1  UNL1        0.0178
     37 C          63.2227   84.0368   10.6779 C.ar    1  UNL1        0.0986
     38 N          63.6862   83.8232    9.2674 N.ar    1  UNL1       -0.2423
     39 C          63.2880   84.7906    8.1925 C.ar    1  UNL1        0.0986
     40 C          62.4262   85.9716    8.5280 C.ar    1  UNL1        0.0178
@<TRIPOS>BOND
     1     1     2    2
     2     2    28    1
     3    28    29    1
     4    29    30    1
     5    30    31    1
     6    31    34    1
     7    34    35    1
     8    35    36   ar
     9    36    37   ar
    10    37    38   ar
    11    38    39   ar
    12    39    40   ar
    13    31    32    1
    14    32    33    1
    15     2     3   am
    16     3     4    1
    17     4     5    1
    18     5     6    1
    19     6     9    1
    20     9    10   ar
    21    10    11    2
    22    10    12   ar
    23    12    19    1
    24    19    20    1
    25    20    21    1
    26    21    22    1
    27    22    23   ar
    28    23    24   ar
    29    24    25   ar
    30    25    26   ar
    31    26    27   ar
    32    12    13   ar
    33    13    14   ar
    34    14    15   ar
    35    15    16   ar
    36    16    17   ar
    37    17    18   ar
    38     6     7    1
    39     7     8    1
    40    33    28    1
    41     8     3    1
    42    40    35   ar
    43    18     9   ar
    44    27    22   ar
    45    18    13   ar
@<TRIPOS>MOLECULE
*****
 40 45 0 0 0
SMALL
GASTEIGER

@<TRIPOS>ATOM
      1 O          57.3481   91.0899    5.9488 O.2     1  UNL1       -0.2749
      2 C          58.7857   90.6837    5.8140 C.2     1  UNL1        0.2252
      3 N          59.6441   91.3045    4.7520 N.am    1  UNL1       -0.2794
      4 C          59.0647   92.3314    3.8247 C.3     1  UNL1        0.0953
      5 C          59.9231   92.9522    2.7627 C.3     1  UNL1        0.0442
      6 C          61.3608   92.5460    2.6279 C.3     1  UNL1        0.0933
      7 C          61.9400   91.5191    3.5551 C.3     1  UNL1        0.0442
      8 C          61.0817   90.8983    4.6172 C.3     1  UNL1        0.0953
      9 N          62.2191   93.1667    1.5658 N.ar    1  UNL1       -0.2817
     10 C          62.1253   92.9050    0.0918 C.ar    1  UNL1        0.3316
     11 O          61.1567   91.9766   -0.5790 O.2     1  UNL1       -0.2463
     12 N          63.1701   93.7348   -0.5936 N.ar    1  UNL1       -0.2761
     13 C          63.9097   94.5093    0.4567 C.ar    1  UNL1        0.0798
     14 C          65.0424   95.4888    0.3703 C.ar    1  UNL1        0.0188
     15 C          65.5872   96.1173    1.6185 C.ar    1  UNL1        0.0016
     16 C          64.9995   95.7662    2.9532 C.ar    1  UNL1        0.0016
     17 C          63.8668   94.7867    3.0396 C.ar    1  UNL1        0.0188
     18 C          63.3219   94.1582    1.7914 C.ar    1  UNL1        0.0796
     19 C          63.4299   93.7818   -2.0702 C.3     1  UNL1        0.1577
     20 C          62.4681   94.4886   -2.9788 C.3     1  UNL1        0.2299
     21 O          61.3347   95.2825   -2.3998 O.3     1  UNL1       -0.4734
     22 C          59.9950   94.6391   -2.1974 C.ar    1  UNL1        0.1386
     23 C          59.1719   94.9837   -0.9916 C.ar    1  UNL1        0.0369
     24 C          57.8321   94.3403   -0.7893 C.ar    1  UNL1        0.0031
     25 C          57.3153   93.3523   -1.7927 C.ar    1  UNL1        0.0002
     26 C          58.1384   93.0077   -2.9984 C.ar    1  UNL1        0.0031
     27 C          59.4783   93.6511   -3.2008 C.ar    1  UNL1        0.0369
     28 C          59.3651   89.6568    6.7413 C.3     1  UNL1        0.0795
     29 C          59.2739   88.1996    6.3976 C.3     1  UNL1        0.0264
     30 C          59.8532   87.1726    7.3248 C.3     1  UNL1        0.0729
     31 N          60.5237   87.6029    8.5957 N.3     1  UNL1       -0.2689
     32 C          60.6149   89.0603    8.9394 C.3     1  UNL1        0.0729
     33 C          60.0356   90.0872    8.0122 C.3     1  UNL1        0.0264
     34 C          61.1031   86.5760    9.5230 C.3     1  UNL1        0.0992
     35 C          61.9301   87.0076   10.6975 C.ar    1  UNL1       -0.0031
     36 C          62.2605   88.4581   10.8897 C.ar    1  UNL1        0.0178
     37 C          63.0876   88.8897   12.0642 C.ar    1  UNL1        0.0986
     38 N          63.5843   87.8709   13.0466 N.ar    1  UNL1       -0.2423
     39 C          63.2540   86.4204   12.8545 C.ar    1  UNL1        0.0986
     40 C          62.4269   85.9887   11.6800 C.ar    1  UNL1        0.0178
@<TRIPOS>BOND
     1     1     2    2
     2     2    28    1
     3    28    29    1
     4    29    30    1
     5    30    31    1
     6    31    34    1
     7    34    35    1
     8    35    36   ar
     9    36    37   ar
    10    37    38   ar
    11    38    39   ar
    12    39    40   ar
    13    31    32    1
    14    32    33    1
    15     2     3   am
    16     3     4    1
    17     4     5    1
    18     5     6    1
    19     6     9    1
    20     9    10   ar
    21    10    11    2
    22    10    12   ar
    23    12    19    1
    24    19    20    1
    25    20    21    1
    26    21    22    1
    27    22    23   ar
    28    23    24   ar
    29    24    25   ar
    30    25    26   ar
    31    26    27   ar
    32    12    13   ar
    33    13    14   ar
    34    14    15   ar
    35    15    16   ar
    36    16    17   ar
    37    17    18   ar
    38     6     7    1
    39     7     8    1
    40    33    28    1
    41     8     3    1
    42    40    35   ar
    43    18     9   ar
    44    27    22   ar
    45    18    13   ar
@<TRIPOS>MOLECULE
*****
 40 45 0 0 0
SMALL
GASTEIGER

@<TRIPOS>ATOM
      1 O          56.8639   90.1476    6.2459 O.2     1  UNL1       -0.2749
      2 C          58.3626   90.1269    6.3024 C.2     1  UNL1        0.2252
      3 N          59.1621   90.8799    5.2807 N.am    1  UNL1       -0.2794
      4 C          58.4628   91.6536    4.2026 C.3     1  UNL1        0.0953
      5 C          59.2622   92.4066    3.1809 C.3     1  UNL1        0.0442
      6 C          60.7611   92.3859    3.2374 C.3     1  UNL1        0.0933
      7 C          61.4603   91.6122    4.3154 C.3     1  UNL1        0.0442
      8 C          60.6609   90.8592    5.3371 C.3     1  UNL1        0.0953
      9 N          61.5606   93.1389    2.2157 N.ar    1  UNL1       -0.2817
     10 C          63.0410   93.0307    1.9999 C.ar    1  UNL1        0.3316
     11 O          63.9819   92.1505    2.7679 O.2     1  UNL1       -0.2463
     12 N          63.4153   93.9573    0.8813 N.ar    1  UNL1       -0.2761
     13 C          62.1662   94.6381    0.4057 C.ar    1  UNL1        0.0798
     14 C          61.9245   95.6533   -0.6718 C.ar    1  UNL1        0.0188
     15 C          60.5365   96.1627   -0.9245 C.ar    1  UNL1        0.0016
     16 C          59.3902   95.6569   -0.0998 C.ar    1  UNL1        0.0016
     17 C          59.6319   94.6418    0.9777 C.ar    1  UNL1        0.0188
     18 C          61.0199   94.1324    1.2304 C.ar    1  UNL1        0.0796
     19 C          64.7963   94.1663    0.3342 C.3     1  UNL1        0.1577
     20 C          65.2128   95.5227   -0.1525 C.3     1  UNL1        0.2299
     21 O          65.6326   95.7109   -1.5803 O.3     1  UNL1       -0.4734
     22 C          64.6285   95.5564   -2.6838 C.ar    1  UNL1        0.1386
     23 C          64.1382   94.1913   -3.0661 C.ar    1  UNL1        0.0369
     24 C          63.1341   94.0370   -4.1697 C.ar    1  UNL1        0.0031
     25 C          62.6201   95.2477   -4.8909 C.ar    1  UNL1        0.0002
     26 C          63.1103   96.6127   -4.5085 C.ar    1  UNL1        0.0031
     27 C          64.1145   96.7671   -3.4049 C.ar    1  UNL1        0.0369
     28 C          59.0619   89.3531    7.3805 C.3     1  UNL1        0.0795
     29 C          59.0082   87.8541    7.3830 C.3     1  UNL1        0.0264
     30 C          59.7075   87.0804    8.4610 C.3     1  UNL1        0.0729
     31 N          60.4606   87.8057    9.5367 N.3     1  UNL1       -0.2689
     32 C          60.5143   89.3048    9.5342 C.3     1  UNL1        0.0729
     33 C          59.8149   90.0785    8.4561 C.3     1  UNL1        0.0264
     34 C          61.1599   87.0319   10.6147 C.3     1  UNL1        0.0992
     35 C          62.0663   85.8929   10.2529 C.ar    1  UNL1       -0.0031
     36 C          62.6077   85.7791    8.8586 C.ar    1  UNL1        0.0178
     37 C          63.5142   84.6401    8.4967 C.ar    1  UNL1        0.0986
     38 N          63.8791   83.6149    9.5290 N.ar    1  UNL1       -0.2423
     39 C          63.3377   83.7287   10.9232 C.ar    1  UNL1        0.0986
     40 C          62.4313   84.8677   11.2852 C.ar    1  UNL1        0.0178
@<TRIPOS>BOND
     1     1     2    2
     2     2    28    1
     3    28    29    1
     4    29    30    1
     5    30    31    1
     6    31    34    1
     7    34    35    1
     8    35    36   ar
     9    36    37   ar
    10    37    38   ar
    11    38    39   ar
    12    39    40   ar
    13    31    32    1
    14    32    33    1
    15     2     3   am
    16     3     4    1
    17     4     5    1
    18     5     6    1
    19     6     9    1
    20     9    10   ar
    21    10    11    2
    22    10    12   ar
    23    12    19    1
    24    19    20    1
    25    20    21    1
    26    21    22    1
    27    22    23   ar
    28    23    24   ar
    29    24    25   ar
    30    25    26   ar
    31    26    27   ar
    32    12    13   ar
    33    13    14   ar
    34    14    15   ar
    35    15    16   ar
    36    16    17   ar
    37    17    18   ar
    38     6     7    1
    39     7     8    1
    40    33    28    1
    41     8     3    1
    42    40    35   ar
    43    18     9   ar
    44    27    22   ar
    45    18    13   ar
