@<TRIPOS>MOLECULE
*****
 38 43 0 0 0
SMALL
GASTEIGER

@<TRIPOS>ATOM
      1 C          59.6573   87.3994    7.6621 C.ar    1  UNL1        0.0155
      2 C          59.5928   88.3814    6.5300 C.ar    1  UNL1        0.0012
      3 C          60.1291   89.7705    6.7107 C.ar    1  UNL1        0.0015
      4 C          60.7299   90.1777    8.0234 C.ar    1  UNL1        0.0192
      5 C          60.7944   89.1958    9.1555 C.ar    1  UNL1        0.0845
      6 C          60.2580   87.8066    8.9749 C.ar    1  UNL1        0.0203
      7 C          60.0647   90.7524    5.5786 C.ar    1  UNL1        0.0000
      8 C          58.7726   91.4439    5.2582 C.ar    1  UNL1       -0.0003
      9 C          58.7082   92.4258    4.1261 C.ar    1  UNL1       -0.0043
     10 C          59.9357   92.7163    3.3144 C.ar    1  UNL1       -0.0227
     11 C          61.2276   92.0249    3.6348 C.ar    1  UNL1       -0.0043
     12 C          61.2922   91.0429    4.7670 C.ar    1  UNL1       -0.0003
     13 C          59.8712   93.6983    2.1823 C.3     1  UNL1        0.0229
     14 C          60.3276   95.1121    2.3889 C.3     1  UNL1        0.0215
     15 C          60.2630   96.0940    1.2568 C.3     1  UNL1        0.0724
     16 N          59.7421   95.6621   -0.0819 N.3     1  UNL1       -0.2726
     17 C          59.2857   94.2483   -0.2884 C.3     1  UNL1        0.0724
     18 C          59.3502   93.2664    0.8436 C.3     1  UNL1        0.0215
     19 C          59.7585   95.0883    0.5084 C.3     1  UNL1        0.0724
     20 C          59.8168   94.2004    1.5321 C.3     1  UNL1        0.0215
     21 N          61.3951   89.6030   10.4682 N.ar    1  UNL1       -0.2089
     22 C          62.7620   90.1873   10.6689 C.ar    1  UNL1        0.1229
     23 C          62.9461   90.4428   12.1355 C.ar    1  UNL1        0.1236
     24 N          61.6931   90.0164   12.8412 N.ar    1  UNL1       -0.1284
     25 N          60.7344   89.4973   11.8108 N.ar    1  UNL1       -0.0595
     26 C          64.1686   91.0228   12.7827 C.ar    1  UNL1        0.0210
     27 C          64.5868   90.5591   14.1466 C.ar    1  UNL1        0.0015
     28 C          65.8093   91.1392   14.7938 C.ar    1  UNL1        0.0039
     29 C          66.6137   92.1830   14.0771 C.ar    1  UNL1        0.0714
     30 C          66.1955   92.6467   12.7133 C.ar    1  UNL1        0.0039
     31 C          64.9730   92.0666   12.0661 C.ar    1  UNL1        0.0015
     32 C          67.8363   92.7631   14.7244 C.3     1  UNL1        0.4186
     33 F          69.0588   93.3432   15.3717 F       1  UNL1       -0.1659
     34 F          68.6993   92.0852   13.7018 F       1  UNL1       -0.1659
     35 F          66.9732   93.4409   15.7469 F       1  UNL1       -0.1659
     36 O          57.6771   85.7208    7.7667 O.co2   1  UNL1       -0.5446
     37 C          59.1210   86.0102    7.4815 C.2     1  UNL1        0.0729
     38 O          60.0286   84.9106    7.0156 O.co2   1  UNL1       -0.5446
@<TRIPOS>UNITY_ATOM_ATTR
36 1
charge -1
@<TRIPOS>BOND
     1    36    37   ar
     2    37    38   ar
     3    37     1    1
     4     1     2   ar
     5     2     3   ar
     6     3     7    1
     7     7     8   ar
     8     8     9   ar
     9     9    10   ar
    10    10    13    1
    11    13    14    1
    12    14    15    1
    13    15    16    1
    14    16    17    1
    15    17    18    1
    16    16    19    1
    17    19    20    1
    18    10    11   ar
    19    11    12   ar
    20     3     4   ar
    21     4     5   ar
    22     5    21    1
    23    21    22   ar
    24    22    23   ar
    25    23    26    1
    26    26    27   ar
    27    27    28   ar
    28    28    29   ar
    29    29    32    1
    30    32    33    1
    31    32    34    1
    32    32    35    1
    33    29    30   ar
    34    30    31   ar
    35    23    24   ar
    36    24    25   ar
    37     5     6   ar
    38     6     1   ar
    39    12     7   ar
    40    25    21   ar
    41    18    13    1
    42    31    26   ar
    43    20    13    1
@<TRIPOS>MOLECULE
*****
 38 43 0 0 0
SMALL
GASTEIGER

@<TRIPOS>ATOM
      1 C          59.7832   87.6829    7.7674 C.ar    1  UNL1        0.0155
      2 C          60.6482   88.1127    8.9150 C.ar    1  UNL1        0.0012
      3 C          61.2219   89.4983    8.9440 C.ar    1  UNL1        0.0015
      4 C          60.9306   90.4542    7.8253 C.ar    1  UNL1        0.0192
      5 C          60.0656   90.0245    6.6777 C.ar    1  UNL1        0.0845
      6 C          59.4919   88.6388    6.6487 C.ar    1  UNL1        0.0203
      7 C          62.0869   89.9280   10.0916 C.ar    1  UNL1        0.0000
      8 C          62.8313   91.2286   10.0239 C.ar    1  UNL1       -0.0003
      9 C          63.6962   91.6583   11.1716 C.ar    1  UNL1       -0.0043
     10 C          63.8170   90.7875   12.3869 C.ar    1  UNL1       -0.0227
     11 C          63.0727   89.4870   12.4546 C.ar    1  UNL1       -0.0043
     12 C          62.2077   89.0572   11.3070 C.ar    1  UNL1       -0.0003
     13 C          64.6821   91.2173   13.5346 C.3     1  UNL1        0.0229
     14 C          64.0927   91.3570   14.9068 C.3     1  UNL1        0.0215
     15 C          64.9577   91.7868   16.0543 C.3     1  UNL1        0.0724
     16 N          66.4122   92.0768   15.8297 N.3     1  UNL1       -0.2726
     17 C          67.0016   91.9370   14.4575 C.3     1  UNL1        0.0724
     18 C          66.1365   91.5073   13.3099 C.3     1  UNL1        0.0215
     19 C          65.9779   91.8443   15.1700 C.3     1  UNL1        0.0724
     20 C          65.1957   91.4557   14.1323 C.3     1  UNL1        0.0215
     21 N          59.7744   90.9804    5.5591 N.ar    1  UNL1       -0.2089
     22 C          60.7659   91.4941    4.5575 C.ar    1  UNL1        0.1229
     23 C          60.0447   92.4216    3.6250 C.ar    1  UNL1        0.1236
     24 N          58.6075   92.4813    4.0502 N.ar    1  UNL1       -0.1284
     25 N          58.4403   91.5906    5.2455 N.ar    1  UNL1       -0.0595
     26 C          60.6538   93.1599    2.4701 C.ar    1  UNL1        0.0210
     27 C          60.1932   94.5490    2.1410 C.ar    1  UNL1        0.0015
     28 C          60.8023   95.2872    0.9861 C.ar    1  UNL1        0.0039
     29 C          61.8721   94.6364    0.1602 C.ar    1  UNL1        0.0714
     30 C          62.3327   93.2473    0.4892 C.ar    1  UNL1        0.0039
     31 C          61.7236   92.5091    1.6442 C.ar    1  UNL1        0.0015
     32 C          62.4812   95.3747   -0.9948 C.3     1  UNL1        0.4186
     33 F          63.0903   96.1129   -2.1498 F       1  UNL1       -0.1659
     34 F          61.3910   96.4017   -0.9133 F       1  UNL1       -0.1659
     35 F          63.5713   94.3476   -1.0764 F       1  UNL1       -0.1659
     36 O          60.0641   85.1405    7.3126 O.co2   1  UNL1       -0.5446
     37 C          59.2095   86.2973    7.7384 C.2     1  UNL1        0.0729
     38 O          57.7811   86.0685    8.1353 O.co2   1  UNL1       -0.5446
@<TRIPOS>UNITY_ATOM_ATTR
36 1
charge -1
@<TRIPOS>BOND
     1    36    37   ar
     2    37    38   ar
     3    37     1    1
     4     1     2   ar
     5     2     3   ar
     6     3     7    1
     7     7     8   ar
     8     8     9   ar
     9     9    10   ar
    10    10    13    1
    11    13    14    1
    12    14    15    1
    13    15    16    1
    14    16    17    1
    15    17    18    1
    16    16    19    1
    17    19    20    1
    18    10    11   ar
    19    11    12   ar
    20     3     4   ar
    21     4     5   ar
    22     5    21    1
    23    21    22   ar
    24    22    23   ar
    25    23    26    1
    26    26    27   ar
    27    27    28   ar
    28    28    29   ar
    29    29    32    1
    30    32    33    1
    31    32    34    1
    32    32    35    1
    33    29    30   ar
    34    30    31   ar
    35    23    24   ar
    36    24    25   ar
    37     5     6   ar
    38     6     1   ar
    39    12     7   ar
    40    25    21   ar
    41    18    13    1
    42    31    26   ar
    43    20    13    1
@<TRIPOS>MOLECULE
*****
 38 43 0 0 0
SMALL
GASTEIGER

@<TRIPOS>ATOM
      1 C          62.0940   85.9197   11.9456 C.ar    1  UNL1        0.0155
      2 C          63.0040   86.9111   12.6082 C.ar    1  UNL1        0.0012
      3 C          63.0810   88.3184   12.0947 C.ar    1  UNL1        0.0015
      4 C          62.2480   88.7343   10.9187 C.ar    1  UNL1        0.0192
      5 C          61.3380   87.7429   10.2561 C.ar    1  UNL1        0.0845
      6 C          61.2610   86.3356   10.7695 C.ar    1  UNL1        0.0203
      7 C          63.9910   89.3097   12.7573 C.ar    1  UNL1        0.0000
      8 C          64.3312   90.5957   12.0640 C.ar    1  UNL1       -0.0003
      9 C          65.2412   91.5871   12.7266 C.ar    1  UNL1       -0.0043
     10 C          65.8110   91.2925   14.0826 C.ar    1  UNL1       -0.0227
     11 C          65.4708   90.0067   14.7759 C.ar    1  UNL1       -0.0043
     12 C          64.5608   89.0152   14.1133 C.ar    1  UNL1       -0.0003
     13 C          66.7210   92.2840   14.7452 C.3     1  UNL1        0.0229
     14 C          66.6563   93.7332   14.3636 C.3     1  UNL1        0.0215
     15 C          67.5663   94.7245   15.0262 C.3     1  UNL1        0.0724
     16 N          68.5410   94.2667   16.0704 N.3     1  UNL1       -0.2726
     17 C          68.6058   92.8175   16.4519 C.3     1  UNL1        0.0724
     18 C          67.6958   91.8262   15.7893 C.3     1  UNL1        0.0215
     19 C          68.0627   93.6865   15.7350 C.3     1  UNL1        0.0724
     20 C          67.2398   92.7901   15.1359 C.3     1  UNL1        0.0215
     21 N          60.5050   88.1588    9.0800 N.ar    1  UNL1       -0.2089
     22 C          60.8263   89.2648    8.1190 C.ar    1  UNL1        0.1229
     23 C          59.7244   89.3312    7.1035 C.ar    1  UNL1        0.1236
     24 N          58.7220   88.2663    7.4368 N.ar    1  UNL1       -0.1284
     25 N          59.2044   87.5416    8.6584 N.ar    1  UNL1       -0.0595
     26 C          59.6396   90.2936    5.9561 C.ar    1  UNL1        0.0210
     27 C          60.8849   90.7031    5.2270 C.ar    1  UNL1        0.0015
     28 C          60.8000   91.6655    4.0796 C.ar    1  UNL1        0.0039
     29 C          59.4699   92.2184    3.6612 C.ar    1  UNL1        0.0714
     30 C          58.2246   91.8089    4.3903 C.ar    1  UNL1        0.0039
     31 C          58.3094   90.8465    5.5377 C.ar    1  UNL1        0.0015
     32 C          59.3851   93.1808    2.5138 C.3     1  UNL1        0.4186
     33 F          59.3003   94.1432    1.3663 F       1  UNL1       -0.1659
     34 F          60.0778   94.2249    3.3383 F       1  UNL1       -0.1659
     35 F          58.6923   92.1367    1.6893 F       1  UNL1       -0.1659
     36 O          61.7600   84.2583   13.9148 O.co2   1  UNL1       -0.5446
     37 C          62.0170   84.5124   12.4591 C.2     1  UNL1        0.0729
     38 O          62.1971   83.3593   11.5168 O.co2   1  UNL1       -0.5446
@<TRIPOS>UNITY_ATOM_ATTR
36 1
charge -1
@<TRIPOS>BOND
     1    36    37   ar
     2    37    38   ar
     3    37     1    1
     4     1     2   ar
     5     2     3   ar
     6     3     7    1
     7     7     8   ar
     8     8     9   ar
     9     9    10   ar
    10    10    13    1
    11    13    14    1
    12    14    15    1
    13    15    16    1
    14    16    17    1
    15    17    18    1
    16    16    19    1
    17    19    20    1
    18    10    11   ar
    19    11    12   ar
    20     3     4   ar
    21     4     5   ar
    22     5    21    1
    23    21    22   ar
    24    22    23   ar
    25    23    26    1
    26    26    27   ar
    27    27    28   ar
    28    28    29   ar
    29    29    32    1
    30    32    33    1
    31    32    34    1
    32    32    35    1
    33    29    30   ar
    34    30    31   ar
    35    23    24   ar
    36    24    25   ar
    37     5     6   ar
    38     6     1   ar
    39    12     7   ar
    40    25    21   ar
    41    18    13    1
    42    31    26   ar
    43    20    13    1
@<TRIPOS>MOLECULE
*****
 38 43 0 0 0
SMALL
GASTEIGER

@<TRIPOS>ATOM
      1 C          60.7031   88.7693    8.9012 C.ar    1  UNL1        0.0155
      2 C          60.8549   87.4167    9.5319 C.ar    1  UNL1        0.0012
      3 C          61.8977   87.1939   10.5867 C.ar    1  UNL1        0.0015
      4 C          62.7888   88.3235   11.0109 C.ar    1  UNL1        0.0192
      5 C          62.6371   89.6759   10.3803 C.ar    1  UNL1        0.0845
      6 C          61.5942   89.8989    9.3254 C.ar    1  UNL1        0.0203
      7 C          62.0495   85.8414   11.2173 C.ar    1  UNL1        0.0000
      8 C          62.2070   84.6247   10.3542 C.ar    1  UNL1       -0.0003
      9 C          62.3587   83.2723   10.9848 C.ar    1  UNL1       -0.0043
     10 C          62.3530   83.1363   12.4786 C.ar    1  UNL1       -0.0227
     11 C          62.1954   84.3529   13.3418 C.ar    1  UNL1       -0.0043
     12 C          62.0437   85.7055   12.7112 C.ar    1  UNL1       -0.0003
     13 C          62.5047   81.7838   13.1092 C.3     1  UNL1        0.0229
     14 C          63.8707   81.2588   13.4385 C.3     1  UNL1        0.0215
     15 C          64.0224   79.9063   14.0691 C.3     1  UNL1        0.0724
     16 N          62.8081   79.0788   14.3704 N.3     1  UNL1       -0.2726
     17 C          61.4421   79.6038   14.0411 C.3     1  UNL1        0.0724
     18 C          61.2904   80.9563   13.4105 C.3     1  UNL1        0.0215
     19 C          62.6749   79.8139   14.0244 C.3     1  UNL1        0.0724
     20 C          62.5377   81.0369   13.4542 C.3     1  UNL1        0.0215
     21 N          63.5282   90.8055   10.8045 N.ar    1  UNL1       -0.2089
     22 C          64.4263   90.8167   12.0059 C.ar    1  UNL1        0.1229
     23 C          65.1308   92.1403   12.0457 C.ar    1  UNL1        0.1236
     24 N          64.6681   92.9473   10.8690 N.ar    1  UNL1       -0.1284
     25 N          63.6776   92.1224   10.1018 N.ar    1  UNL1       -0.0595
     26 C          66.1236   92.5799   13.0805 C.ar    1  UNL1        0.0210
     27 C          66.2910   94.0386   13.3874 C.ar    1  UNL1        0.0015
     28 C          67.2839   94.4781   14.4223 C.ar    1  UNL1        0.0039
     29 C          68.1094   93.4590   15.1502 C.ar    1  UNL1        0.0714
     30 C          67.9421   92.0003   14.8433 C.ar    1  UNL1        0.0039
     31 C          66.9491   91.5608   13.8085 C.ar    1  UNL1        0.0015
     32 C          69.1024   93.8986   16.1851 C.3     1  UNL1        0.4186
     33 F          70.0953   94.3381   17.2200 F       1  UNL1       -0.1659
     34 F          68.8191   95.3324   15.8479 F       1  UNL1       -0.1659
     35 F          69.3856   92.4647   16.5224 F       1  UNL1       -0.1659
     36 O          58.4781   88.0735    7.7545 O.co2   1  UNL1       -0.5446
     37 C          59.6602   88.9921    7.8463 C.2     1  UNL1        0.0729
     38 O          59.7996   90.1337    6.8832 O.co2   1  UNL1       -0.5446
@<TRIPOS>UNITY_ATOM_ATTR
36 1
charge -1
@<TRIPOS>BOND
     1    36    37   ar
     2    37    38   ar
     3    37     1    1
     4     1     2   ar
     5     2     3   ar
     6     3     7    1
     7     7     8   ar
     8     8     9   ar
     9     9    10   ar
    10    10    13    1
    11    13    14    1
    12    14    15    1
    13    15    16    1
    14    16    17    1
    15    17    18    1
    16    16    19    1
    17    19    20    1
    18    10    11   ar
    19    11    12   ar
    20     3     4   ar
    21     4     5   ar
    22     5    21    1
    23    21    22   ar
    24    22    23   ar
    25    23    26    1
    26    26    27   ar
    27    27    28   ar
    28    28    29   ar
    29    29    32    1
    30    32    33    1
    31    32    34    1
    32    32    35    1
    33    29    30   ar
    34    30    31   ar
    35    23    24   ar
    36    24    25   ar
    37     5     6   ar
    38     6     1   ar
    39    12     7   ar
    40    25    21   ar
    41    18    13    1
    42    31    26   ar
    43    20    13    1
@<TRIPOS>MOLECULE
*****
 38 43 0 0 0
SMALL
GASTEIGER

@<TRIPOS>ATOM
      1 C          61.1782   88.4249   10.7484 C.ar    1  UNL1        0.0155
      2 C          62.1672   89.3580   11.3818 C.ar    1  UNL1        0.0012
      3 C          63.1814   88.8298   12.3525 C.ar    1  UNL1        0.0015
      4 C          63.2067   87.3684   12.6899 C.ar    1  UNL1        0.0192
      5 C          62.2177   86.4353   12.0565 C.ar    1  UNL1        0.0845
      6 C          61.2035   86.9635   11.0857 C.ar    1  UNL1        0.0203
      7 C          64.1703   89.7629   12.9859 C.ar    1  UNL1        0.0000
      8 C          64.7071   89.4700   14.3557 C.ar    1  UNL1       -0.0003
      9 C          65.6960   90.4031   14.9891 C.ar    1  UNL1       -0.0043
     10 C          66.1483   91.6292   14.2528 C.ar    1  UNL1       -0.0227
     11 C          65.6116   91.9222   12.8831 C.ar    1  UNL1       -0.0043
     12 C          64.6226   90.9890   12.2496 C.ar    1  UNL1       -0.0003
     13 C          67.1372   92.5624   14.8862 C.3     1  UNL1        0.0229
     14 C          67.0665   94.0340   14.6048 C.3     1  UNL1        0.0215
     15 C          68.0555   94.9671   15.2383 C.3     1  UNL1        0.0724
     16 N          69.1152   94.4285   16.1531 N.3     1  UNL1       -0.2726
     17 C          69.1859   92.9569   16.4346 C.3     1  UNL1        0.0724
     18 C          68.1970   92.0238   15.8011 C.3     1  UNL1        0.0215
     19 C          68.5953   93.8783   15.8293 C.3     1  UNL1        0.0724
     20 C          67.7010   93.0346   15.2565 C.3     1  UNL1        0.0215
     21 N          62.2430   84.9739   12.3938 N.ar    1  UNL1       -0.2089
     22 C          62.5325   83.8536   11.4393 C.ar    1  UNL1        0.1229
     23 C          62.4517   82.5636   12.2004 C.ar    1  UNL1        0.1236
     24 N          62.1122   82.8866   13.6253 N.ar    1  UNL1       -0.1284
     25 N          61.9832   84.3763   13.7449 N.ar    1  UNL1       -0.0595
     26 C          62.6717   81.1915   11.6359 C.ar    1  UNL1        0.0210
     27 C          63.0514   81.0256   10.1942 C.ar    1  UNL1        0.0015
     28 C          63.2714   79.6534    9.6297 C.ar    1  UNL1        0.0039
     29 C          63.1116   78.4471   10.5068 C.ar    1  UNL1        0.0714
     30 C          62.7319   78.6129   11.9484 C.ar    1  UNL1        0.0039
     31 C          62.5119   79.9851   12.5129 C.ar    1  UNL1        0.0015
     32 C          63.3316   77.0749    9.9422 C.3     1  UNL1        0.4186
     33 F          63.5516   75.7027    9.3777 F       1  UNL1       -0.1659
     34 F          64.2463   77.6497    8.9017 F       1  UNL1       -0.1659
     35 F          62.4168   76.5001   10.9828 F       1  UNL1       -0.1659
     36 O          59.7784   90.4023    9.8103 O.co2   1  UNL1       -0.5446
     37 C          60.1640   88.9531    9.7777 C.2     1  UNL1        0.0729
     38 O          59.5354   88.0321    8.7744 O.co2   1  UNL1       -0.5446
@<TRIPOS>UNITY_ATOM_ATTR
36 1
charge -1
@<TRIPOS>BOND
     1    36    37   ar
     2    37    38   ar
     3    37     1    1
     4     1     2   ar
     5     2     3   ar
     6     3     7    1
     7     7     8   ar
     8     8     9   ar
     9     9    10   ar
    10    10    13    1
    11    13    14    1
    12    14    15    1
    13    15    16    1
    14    16    17    1
    15    17    18    1
    16    16    19    1
    17    19    20    1
    18    10    11   ar
    19    11    12   ar
    20     3     4   ar
    21     4     5   ar
    22     5    21    1
    23    21    22   ar
    24    22    23   ar
    25    23    26    1
    26    26    27   ar
    27    27    28   ar
    28    28    29   ar
    29    29    32    1
    30    32    33    1
    31    32    34    1
    32    32    35    1
    33    29    30   ar
    34    30    31   ar
    35    23    24   ar
    36    24    25   ar
    37     5     6   ar
    38     6     1   ar
    39    12     7   ar
    40    25    21   ar
    41    18    13    1
    42    31    26   ar
    43    20    13    1
@<TRIPOS>MOLECULE
*****
 38 43 0 0 0
SMALL
GASTEIGER

@<TRIPOS>ATOM
      1 C          63.0136   90.2123   11.3278 C.ar    1  UNL1        0.0155
      2 C          63.0705   88.8078   11.8517 C.ar    1  UNL1        0.0012
      3 C          62.3690   87.7043   11.1169 C.ar    1  UNL1        0.0015
      4 C          61.6105   88.0051    9.8583 C.ar    1  UNL1        0.0192
      5 C          61.5535   89.4094    9.3344 C.ar    1  UNL1        0.0845
      6 C          62.2550   90.5131   10.0692 C.ar    1  UNL1        0.0203
      7 C          62.4260   86.2999   11.6408 C.ar    1  UNL1        0.0000
      8 C          62.2389   85.1423   10.7053 C.ar    1  UNL1       -0.0003
      9 C          62.2959   83.7379   11.2292 C.ar    1  UNL1       -0.0043
     10 C          62.5399   83.4911   12.6885 C.ar    1  UNL1       -0.0227
     11 C          62.7270   84.6486   13.6239 C.ar    1  UNL1       -0.0043
     12 C          62.6700   86.0531   13.1000 C.ar    1  UNL1       -0.0003
     13 C          62.5969   82.0866   13.2123 C.3     1  UNL1        0.0229
     14 C          63.9222   81.4108   13.4039 C.3     1  UNL1        0.0215
     15 C          63.9792   80.0064   13.9277 C.3     1  UNL1        0.0724
     16 N          62.7108   79.2779   14.2599 N.3     1  UNL1       -0.2726
     17 C          61.3854   79.9537   14.0684 C.3     1  UNL1        0.0724
     18 C          61.3285   81.3581   13.5445 C.3     1  UNL1        0.0215
     19 C          62.6292   80.0462   13.9757 C.3     1  UNL1        0.0724
     20 C          62.5778   81.3161   13.5020 C.3     1  UNL1        0.0215
     21 N          60.7950   89.7102    8.0758 N.ar    1  UNL1       -0.2089
     22 C          61.2560   90.6003    6.9599 C.ar    1  UNL1        0.1229
     23 C          60.1882   90.6139    5.9065 C.ar    1  UNL1        0.1236
     24 N          59.0672   89.7323    6.3713 N.ar    1  UNL1       -0.1284
     25 N          59.4422   89.1737    7.7120 N.ar    1  UNL1       -0.0595
     26 C          60.2334   91.3755    4.6150 C.ar    1  UNL1        0.0210
     27 C          58.9743   91.9552    4.0417 C.ar    1  UNL1        0.0015
     28 C          59.0196   92.7168    2.7502 C.ar    1  UNL1        0.0039
     29 C          60.3239   92.8986    2.0321 C.ar    1  UNL1        0.0714
     30 C          61.5829   92.3189    2.6054 C.ar    1  UNL1        0.0039
     31 C          61.5377   91.5573    3.8969 C.ar    1  UNL1        0.0015
     32 C          60.3691   93.6602    0.7405 C.3     1  UNL1        0.4186
     33 F          60.4143   94.4218   -0.5510 F       1  UNL1       -0.1659
     34 F          61.2923   92.6280    0.1642 F       1  UNL1       -0.1659
     35 F          59.4459   94.6924    1.3169 F       1  UNL1       -0.1659
     36 O          63.5047   91.4866   13.5379 O.co2   1  UNL1       -0.5446
     37 C          63.7151   91.3158   12.0626 C.2     1  UNL1        0.0729
     38 O          64.6270   92.2486   11.3221 O.co2   1  UNL1       -0.5446
@<TRIPOS>UNITY_ATOM_ATTR
36 1
charge -1
@<TRIPOS>BOND
     1    36    37   ar
     2    37    38   ar
     3    37     1    1
     4     1     2   ar
     5     2     3   ar
     6     3     7    1
     7     7     8   ar
     8     8     9   ar
     9     9    10   ar
    10    10    13    1
    11    13    14    1
    12    14    15    1
    13    15    16    1
    14    16    17    1
    15    17    18    1
    16    16    19    1
    17    19    20    1
    18    10    11   ar
    19    11    12   ar
    20     3     4   ar
    21     4     5   ar
    22     5    21    1
    23    21    22   ar
    24    22    23   ar
    25    23    26    1
    26    26    27   ar
    27    27    28   ar
    28    28    29   ar
    29    29    32    1
    30    32    33    1
    31    32    34    1
    32    32    35    1
    33    29    30   ar
    34    30    31   ar
    35    23    24   ar
    36    24    25   ar
    37     5     6   ar
    38     6     1   ar
    39    12     7   ar
    40    25    21   ar
    41    18    13    1
    42    31    26   ar
    43    20    13    1
