@<TRIPOS>MOLECULE
*****
 37 42 0 0 0
SMALL
GASTEIGER

@<TRIPOS>ATOM
      1 C          60.4710   88.4047    8.8764 C.ar    1  UNL1        0.0140
      2 C          61.3538   89.3381    9.6507 C.ar    1  UNL1        0.0011
      3 C          62.2932   88.7957   10.6867 C.ar    1  UNL1        0.0000
      4 C          62.3498   87.3198   10.9485 C.ar    1  UNL1        0.0000
      5 C          63.2891   86.7774   11.9845 C.ar    1  UNL1        0.0000
      6 C          63.3457   85.3015   12.2463 C.ar    1  UNL1       -0.0000
      7 C          62.4629   84.3681   11.4721 C.ar    1  UNL1       -0.0000
      8 C          61.5236   84.9105   10.4361 C.ar    1  UNL1        0.0000
      9 C          61.4670   86.3863   10.1743 C.ar    1  UNL1        0.0000
     10 C          60.5276   86.9289    9.1382 C.ar    1  UNL1        0.0011
     11 C          63.1759   89.7292   11.4609 C.ar    1  UNL1       -0.0000
     12 C          63.5382   89.4132   12.8817 C.ar    1  UNL1       -0.0003
     13 C          64.4210   90.3467   13.6559 C.ar    1  UNL1       -0.0043
     14 C          64.9415   91.5960   13.0093 C.ar    1  UNL1       -0.0224
     15 C          64.5792   91.9120   11.5884 C.ar    1  UNL1       -0.0043
     16 C          63.6964   90.9786   10.8142 C.ar    1  UNL1       -0.0003
     17 C          65.8243   92.5295   13.7835 C.3     1  UNL1        0.0250
     18 C          66.3309   93.8596   13.3103 C.3     1  UNL1        0.0201
     19 C          67.1752   94.4489   14.4012 C.3     1  UNL1        0.0544
     20 C          66.3403   93.2626   14.0194 C.3     1  UNL1        0.0174
     21 C          66.3554   92.2966   15.1669 C.3     1  UNL1        0.0212
     22 C          67.1997   92.8859   16.2578 C.3     1  UNL1        0.0689
     23 N          67.7063   94.2160   15.7845 N.3     1  UNL1       -0.2985
     24 H          68.7261   94.2119   15.7676 H       1  UNL1        0.1232
     25 C          62.5195   82.8921   11.7339 C.ar    1  UNL1       -0.0000
     26 C          63.0209   81.9605   10.6707 C.ar    1  UNL1       -0.0001
     27 C          63.0775   80.4845   10.9325 C.ar    1  UNL1        0.0039
     28 C          62.6327   79.9403   12.2576 C.ar    1  UNL1        0.0714
     29 C          62.1313   80.8721   13.3209 C.ar    1  UNL1        0.0039
     30 C          62.0747   82.3479   13.0591 C.ar    1  UNL1       -0.0001
     31 C          62.6893   78.4645   12.5195 C.3     1  UNL1        0.4186
     32 F          62.7459   76.9886   12.7814 F       1  UNL1       -0.1659
     33 F          62.6426   78.7247   13.9960 F       1  UNL1       -0.1659
     34 F          62.7359   78.2043   11.0430 F       1  UNL1       -0.1659
     35 O          59.8324   90.2525    7.1653 O.co2   1  UNL1       -0.5446
     36 C          59.5317   88.9472    7.8404 C.2     1  UNL1        0.0729
     37 O          58.2916   88.1844    7.4795 O.co2   1  UNL1       -0.5446
@<TRIPOS>UNITY_ATOM_ATTR
35 1
charge -1
@<TRIPOS>BOND
     1    35    36   ar
     2    36    37   ar
     3    36     1    1
     4     1     2   ar
     5     2     3   ar
     6     3    11    1
     7    11    12   ar
     8    12    13   ar
     9    13    14   ar
    10    17    14    1
    11    17    18    1
    12    19    18    1
    13    19    20    1
    14    20    21    1
    15    21    22    1
    16    22    23    1
    17    14    15   ar
    18    15    16   ar
    19     3     4   ar
    20     4     5   ar
    21     5     6   ar
    22     6     7   ar
    23     7    25    1
    24    25    26   ar
    25    26    27   ar
    26    27    28   ar
    27    28    31    1
    28    31    32    1
    29    31    33    1
    30    31    34    1
    31    28    29   ar
    32    29    30   ar
    33     7     8   ar
    34     8     9   ar
    35     9    10   ar
    36    10     1   ar
    37    16    11   ar
    38     9     4   ar
    39    21    17    1
    40    30    25   ar
    41    23    19    1
    42    23    24    1
@<TRIPOS>MOLECULE
*****
 37 42 0 0 0
SMALL
GASTEIGER

@<TRIPOS>ATOM
      1 C          60.6859   89.5879   10.8522 C.ar    1  UNL1        0.0140
      2 C          61.7923   90.3350   11.5359 C.ar    1  UNL1        0.0011
      3 C          62.8669   89.5832   12.2639 C.ar    1  UNL1        0.0000
      4 C          62.8351   88.0841   12.3081 C.ar    1  UNL1        0.0000
      5 C          63.9096   87.3323   13.0361 C.ar    1  UNL1        0.0000
      6 C          63.8778   85.8333   13.0804 C.ar    1  UNL1       -0.0000
      7 C          62.7713   85.0862   12.3966 C.ar    1  UNL1       -0.0000
      8 C          61.6967   85.8380   11.6687 C.ar    1  UNL1        0.0000
      9 C          61.7286   87.3370   11.6244 C.ar    1  UNL1        0.0000
     10 C          60.6540   88.0889   10.8964 C.ar    1  UNL1        0.0011
     11 C          63.9734   90.3304   12.9476 C.ar    1  UNL1       -0.0000
     12 C          64.6923   91.4316   12.2262 C.ar    1  UNL1       -0.0003
     13 C          65.7987   92.1787   12.9100 C.ar    1  UNL1       -0.0043
     14 C          66.1863   91.8247   14.3151 C.ar    1  UNL1       -0.0224
     15 C          65.4674   90.7234   15.0365 C.ar    1  UNL1       -0.0043
     16 C          64.3609   89.9762   14.3528 C.ar    1  UNL1       -0.0003
     17 C          67.2928   92.5718   14.9988 C.3     1  UNL1        0.0250
     18 C          67.4901   94.0588   14.9890 C.3     1  UNL1        0.0201
     19 C          68.7154   94.3692   15.7965 C.3     1  UNL1        0.0544
     20 C          67.8362   93.2584   15.3035 C.3     1  UNL1        0.0174
     21 C          68.3962   91.9633   15.8125 C.3     1  UNL1        0.0212
     22 C          69.6216   92.2737   16.6200 C.3     1  UNL1        0.0689
     23 N          69.8188   93.7605   16.6101 N.3     1  UNL1       -0.2985
     24 H          70.7217   93.9872   16.1932 H       1  UNL1        0.1232
     25 C          62.7395   83.5871   12.4409 C.ar    1  UNL1       -0.0000
     26 C          63.1189   82.7927   11.2265 C.ar    1  UNL1       -0.0001
     27 C          63.0871   81.2936   11.2707 C.ar    1  UNL1        0.0039
     28 C          62.6758   80.5891   12.5295 C.ar    1  UNL1        0.0714
     29 C          62.2963   81.3836   13.7439 C.ar    1  UNL1        0.0039
     30 C          62.3281   82.8826   13.6996 C.ar    1  UNL1       -0.0001
     31 C          62.6439   79.0901   12.5738 C.3     1  UNL1        0.4186
     32 F          62.6120   77.5911   12.6181 F       1  UNL1       -0.1659
     33 F          62.7027   79.0446   11.0757 F       1  UNL1       -0.1659
     34 F          62.5851   79.1356   14.0719 F       1  UNL1       -0.1659
     35 O          59.4628   90.1864    8.6395 O.co2   1  UNL1       -0.5446
     36 C          59.6112   90.3398   10.1242 C.2     1  UNL1        0.0729
     37 O          58.6851   91.2450   10.8810 O.co2   1  UNL1       -0.5446
@<TRIPOS>UNITY_ATOM_ATTR
35 1
charge -1
@<TRIPOS>BOND
     1    35    36   ar
     2    36    37   ar
     3    36     1    1
     4     1     2   ar
     5     2     3   ar
     6     3    11    1
     7    11    12   ar
     8    12    13   ar
     9    13    14   ar
    10    17    14    1
    11    17    18    1
    12    19    18    1
    13    19    20    1
    14    20    21    1
    15    21    22    1
    16    22    23    1
    17    14    15   ar
    18    15    16   ar
    19     3     4   ar
    20     4     5   ar
    21     5     6   ar
    22     6     7   ar
    23     7    25    1
    24    25    26   ar
    25    26    27   ar
    26    27    28   ar
    27    28    31    1
    28    31    32    1
    29    31    33    1
    30    31    34    1
    31    28    29   ar
    32    29    30   ar
    33     7     8   ar
    34     8     9   ar
    35     9    10   ar
    36    10     1   ar
    37    16    11   ar
    38     9     4   ar
    39    21    17    1
    40    30    25   ar
    41    23    19    1
    42    23    24    1
@<TRIPOS>MOLECULE
*****
 37 42 0 0 0
SMALL
GASTEIGER

@<TRIPOS>ATOM
      1 C          57.0285   90.9892    5.3500 C.ar    1  UNL1        0.0140
      2 C          57.7046   90.0246    6.2788 C.ar    1  UNL1        0.0011
      3 C          59.1912   89.8362    6.2123 C.ar    1  UNL1        0.0000
      4 C          60.0018   90.6125    5.2171 C.ar    1  UNL1        0.0000
      5 C          61.4884   90.4241    5.1506 C.ar    1  UNL1        0.0000
      6 C          62.2990   91.2004    4.1554 C.ar    1  UNL1       -0.0000
      7 C          61.6229   92.1649    3.2267 C.ar    1  UNL1       -0.0000
      8 C          60.1363   92.3533    3.2931 C.ar    1  UNL1        0.0000
      9 C          59.3257   91.5771    4.2883 C.ar    1  UNL1        0.0000
     10 C          57.8390   91.7654    4.3548 C.ar    1  UNL1        0.0011
     11 C          59.8672   88.8717    7.1410 C.ar    1  UNL1       -0.0000
     12 C          59.8626   87.4040    6.8314 C.ar    1  UNL1       -0.0003
     13 C          60.5387   86.4394    7.7601 C.ar    1  UNL1       -0.0043
     14 C          61.2194   86.9425    8.9985 C.ar    1  UNL1       -0.0224
     15 C          61.2240   88.4103    9.3081 C.ar    1  UNL1       -0.0043
     16 C          60.5480   89.3748    8.3794 C.ar    1  UNL1       -0.0003
     17 C          61.8955   85.9779    9.9272 C.3     1  UNL1        0.0250
     18 C          61.6764   85.8788   11.4078 C.3     1  UNL1        0.0201
     19 C          62.5548   84.7828   11.9340 C.3     1  UNL1        0.0544
     20 C          62.1473   85.5214   10.6938 C.3     1  UNL1        0.0174
     21 C          62.9093   84.9431    9.5384 C.3     1  UNL1        0.0212
     22 C          63.7878   83.8470   10.0647 C.3     1  UNL1        0.0689
     23 N          63.5686   83.7480   11.5452 N.3     1  UNL1       -0.2985
     24 H          64.4454   83.9204   12.0371 H       1  UNL1        0.1232
     25 C          62.4335   92.9412    2.2314 C.ar    1  UNL1       -0.0000
     26 C          63.8803   92.6071    2.0189 C.ar    1  UNL1       -0.0001
     27 C          64.6909   93.3834    1.0237 C.ar    1  UNL1        0.0039
     28 C          64.0547   94.4937    0.2410 C.ar    1  UNL1        0.0714
     29 C          62.6078   94.8277    0.4536 C.ar    1  UNL1        0.0039
     30 C          61.7973   94.0515    1.4488 C.ar    1  UNL1       -0.0001
     31 C          64.8652   95.2699   -0.7542 C.3     1  UNL1        0.4186
     32 F          65.6758   96.0461   -1.7493 F       1  UNL1       -0.1659
     33 F          64.2291   94.4996   -1.8731 F       1  UNL1       -0.1659
     34 F          65.5014   96.0401    0.3647 F       1  UNL1       -0.1659
     35 O          54.8705   92.1705    4.5148 O.co2   1  UNL1       -0.5446
     36 C          55.5418   91.1775    5.4165 C.2     1  UNL1        0.0729
     37 O          54.7265   90.3728    6.3849 O.co2   1  UNL1       -0.5446
@<TRIPOS>UNITY_ATOM_ATTR
35 1
charge -1
@<TRIPOS>BOND
     1    35    36   ar
     2    36    37   ar
     3    36     1    1
     4     1     2   ar
     5     2     3   ar
     6     3    11    1
     7    11    12   ar
     8    12    13   ar
     9    13    14   ar
    10    17    14    1
    11    17    18    1
    12    19    18    1
    13    19    20    1
    14    20    21    1
    15    21    22    1
    16    22    23    1
    17    14    15   ar
    18    15    16   ar
    19     3     4   ar
    20     4     5   ar
    21     5     6   ar
    22     6     7   ar
    23     7    25    1
    24    25    26   ar
    25    26    27   ar
    26    27    28   ar
    27    28    31    1
    28    31    32    1
    29    31    33    1
    30    31    34    1
    31    28    29   ar
    32    29    30   ar
    33     7     8   ar
    34     8     9   ar
    35     9    10   ar
    36    10     1   ar
    37    16    11   ar
    38     9     4   ar
    39    21    17    1
    40    30    25   ar
    41    23    19    1
    42    23    24    1
