@<TRIPOS>MOLECULE
*****
 33 37 0 0 0
SMALL
GASTEIGER

@<TRIPOS>ATOM
      1 C          66.8259   96.2178   10.8448 C.3     1  UNL1        0.0522
      2 C          66.3501   94.9565   11.5027 C.ar    1  UNL1        0.0616
      3 C          66.8394   94.5951   12.8738 C.ar    1  UNL1        0.0252
      4 C          66.3637   93.3338   13.5316 C.ar    1  UNL1        0.0740
      5 C          65.3986   92.4338   12.8184 C.ar    1  UNL1        0.0630
      6 C          64.7587   91.1354   13.2117 C.ar    1  UNL1        0.1051
      7 N          64.8674   90.2978   14.4512 N.ar    1  UNL1       -0.2223
      8 C          64.0912   89.0191   14.5627 C.ar    1  UNL1        0.2001
      9 N          63.2064   88.5780   13.4346 N.ar    1  UNL1       -0.2075
     10 C          63.0977   89.4157   12.1951 C.ar    1  UNL1        0.1510
     11 C          63.8739   90.6944   12.0836 C.ar    1  UNL1        0.1111
     12 N          63.9670   91.7202   10.9932 N.ar    1  UNL1       -0.3072
     13 C          63.2445   91.6783    9.6793 C.3     1  UNL1        0.1320
     14 C          64.9093   92.7953   11.4473 C.ar    1  UNL1        0.1456
     15 N          65.3851   94.0566   10.7894 N.ar    1  UNL1       -0.2325
     16 N          62.2129   88.9746   11.0670 N.pl3   1  UNL1       -0.2892
     17 C          61.0104   89.7900   10.6941 C.3     1  UNL1        0.1095
     18 C          60.1256   89.3489    9.5660 C.3     1  UNL1        0.0939
     19 N          60.4432   88.0925    8.8108 N.3     1  UNL1       -0.2695
     20 C          61.6457   87.2771    9.1837 C.3     1  UNL1        0.0939
     21 C          62.5306   87.7182   10.3118 C.3     1  UNL1        0.1095
     22 C          59.5584   87.6514    7.6828 C.3     1  UNL1        0.0769
     23 C          58.4749   88.5590    7.1805 C.3     1  UNL1        0.0437
     24 C          58.8117   89.6846    6.2481 C.ar    1  UNL1       -0.0184
     25 C          57.7346   90.6170    5.7781 C.ar    1  UNL1       -0.0018
     26 C          58.0714   91.7426    4.8456 C.ar    1  UNL1        0.0316
     27 C          59.4852   91.9359    4.3831 C.ar    1  UNL1        0.1674
     28 F          59.8220   93.0615    3.4506 F       1  UNL1       -0.2018
     29 C          60.5622   91.0035    4.8530 C.ar    1  UNL1        0.1671
     30 F          61.9759   91.1968    4.3905 F       1  UNL1       -0.2018
     31 C          60.2254   89.8779    5.7855 C.ar    1  UNL1        0.0277
     32 C          66.8530   92.9724   14.9028 C.1     1  UNL1        0.1006
     33 N          67.3423   92.6110   16.2739 N.1     1  UNL1       -0.1908
@<TRIPOS>BOND
     1     1     2    1
     2     2     3   ar
     3     3     4   ar
     4     4    32    1
     5    32    33    3
     6     4     5   ar
     7     5     6   ar
     8     6     7   ar
     9     7     8   ar
    10     8     9   ar
    11     9    10   ar
    12    10    16    1
    13    16    17    1
    14    17    18    1
    15    18    19    1
    16    19    22    1
    17    22    23    1
    18    23    24    1
    19    24    25   ar
    20    25    26   ar
    21    26    27   ar
    22    27    28    1
    23    27    29   ar
    24    29    30    1
    25    29    31   ar
    26    19    20    1
    27    20    21    1
    28    10    11   ar
    29    11    12   ar
    30    12    13    1
    31    12    14   ar
    32    14    15   ar
    33    15     2   ar
    34    14     5   ar
    35    11     6   ar
    36    21    16    1
    37    31    24   ar
@<TRIPOS>MOLECULE
*****
 33 37 0 0 0
SMALL
GASTEIGER

@<TRIPOS>ATOM
      1 C          67.3113   95.8563    9.9480 C.3     1  UNL1        0.0522
      2 C          66.6979   94.8506   10.8767 C.ar    1  UNL1        0.0616
      3 C          67.1530   94.7722   12.3038 C.ar    1  UNL1        0.0252
      4 C          66.5396   93.7666   13.2325 C.ar    1  UNL1        0.0740
      5 C          65.4712   92.8393   12.7340 C.ar    1  UNL1        0.0630
      6 C          64.6883   91.7537   13.4113 C.ar    1  UNL1        0.1051
      7 N          64.7092   91.2282   14.8160 N.ar    1  UNL1       -0.2223
      8 C          63.7910   90.1102   15.2122 C.ar    1  UNL1        0.2001
      9 N          62.8521   89.5176   14.2036 N.ar    1  UNL1       -0.2075
     10 C          62.8313   90.0431   12.7988 C.ar    1  UNL1        0.1510
     11 C          63.7494   91.1611   12.4027 C.ar    1  UNL1        0.1111
     12 N          63.9520   91.8805   11.1021 N.ar    1  UNL1       -0.3072
     13 C          63.2190   91.6102    9.8216 C.3     1  UNL1        0.1320
     14 C          65.0161   92.9177   11.3069 C.ar    1  UNL1        0.1456
     15 N          65.6295   93.9234   10.3782 N.ar    1  UNL1       -0.2325
     16 N          61.8923   89.4505   11.7903 N.pl3   1  UNL1       -0.2892
     17 C          60.4243   89.3719   12.0878 C.3     1  UNL1        0.1095
     18 C          59.4853   88.7793   11.0792 C.3     1  UNL1        0.0939
     19 N          60.0144   88.2654    9.7731 N.3     1  UNL1       -0.2695
     20 C          61.4825   88.3441    9.4756 C.3     1  UNL1        0.0939
     21 C          62.4214   88.9367   10.4842 C.3     1  UNL1        0.1095
     22 C          59.0755   87.6729    8.7645 C.3     1  UNL1        0.0769
     23 C          59.4897   86.4697    7.9703 C.3     1  UNL1        0.0437
     24 C          60.7606   85.7486    8.3091 C.ar    1  UNL1       -0.0184
     25 C          61.6609   85.2602    7.2132 C.ar    1  UNL1       -0.0018
     26 C          62.9317   84.5391    7.5520 C.ar    1  UNL1        0.0316
     27 C          63.3023   84.3063    8.9868 C.ar    1  UNL1        0.1674
     28 F          64.5732   83.5852    9.3256 F       1  UNL1       -0.2018
     29 C          62.4021   84.7946   10.0827 C.ar    1  UNL1        0.1671
     30 F          62.7727   84.5618   11.5174 F       1  UNL1       -0.2018
     31 C          61.1312   85.5158    9.7438 C.ar    1  UNL1        0.0277
     32 C          66.9948   93.6882   14.6597 C.1     1  UNL1        0.1006
     33 N          67.4499   93.6098   16.0868 N.1     1  UNL1       -0.1908
@<TRIPOS>BOND
     1     1     2    1
     2     2     3   ar
     3     3     4   ar
     4     4    32    1
     5    32    33    3
     6     4     5   ar
     7     5     6   ar
     8     6     7   ar
     9     7     8   ar
    10     8     9   ar
    11     9    10   ar
    12    10    16    1
    13    16    17    1
    14    17    18    1
    15    18    19    1
    16    19    22    1
    17    22    23    1
    18    23    24    1
    19    24    25   ar
    20    25    26   ar
    21    26    27   ar
    22    27    28    1
    23    27    29   ar
    24    29    30    1
    25    29    31   ar
    26    19    20    1
    27    20    21    1
    28    10    11   ar
    29    11    12   ar
    30    12    13    1
    31    12    14   ar
    32    14    15   ar
    33    15     2   ar
    34    14     5   ar
    35    11     6   ar
    36    21    16    1
    37    31    24   ar
@<TRIPOS>MOLECULE
*****
 33 37 0 0 0
SMALL
GASTEIGER

@<TRIPOS>ATOM
      1 C          65.2173   91.9523   15.0094 C.3     1  UNL1        0.0522
      2 C          64.6463   90.7248   14.3634 C.ar    1  UNL1        0.0616
      3 C          64.9142   89.3725   14.9546 C.ar    1  UNL1        0.0252
      4 C          64.3433   88.1451   14.3086 C.ar    1  UNL1        0.0740
      5 C          63.5044   88.2699   13.0714 C.ar    1  UNL1        0.0630
      6 C          62.8131   87.2465   12.2201 C.ar    1  UNL1        0.1051
      7 N          62.7268   85.7522   12.3180 N.ar    1  UNL1       -0.2223
      8 C          61.9453   84.9777   11.2984 C.ar    1  UNL1        0.2001
      9 N          61.2501   85.6976   10.1811 N.ar    1  UNL1       -0.2075
     10 C          61.3364   87.1918   10.0832 C.ar    1  UNL1        0.1510
     11 C          62.1179   87.9663   11.1027 C.ar    1  UNL1        0.1111
     12 N          62.3796   89.4345   11.2635 N.ar    1  UNL1       -0.3072
     13 C          61.8732   90.5239   10.3652 C.3     1  UNL1        0.1320
     14 C          63.2365   89.6221   12.4802 C.ar    1  UNL1        0.1456
     15 N          63.8075   90.8496   13.1262 N.ar    1  UNL1       -0.2325
     16 N          60.6412   87.9117    8.9658 N.pl3   1  UNL1       -0.2892
     17 C          60.0891   87.1390    7.8047 C.3     1  UNL1        0.1095
     18 C          59.3940   87.8588    6.6873 C.3     1  UNL1        0.0939
     19 N          59.2508   89.3513    6.7310 N.3     1  UNL1       -0.2695
     20 C          59.8029   90.1240    7.8921 C.3     1  UNL1        0.0939
     21 C          60.4981   89.4042    9.0095 C.3     1  UNL1        0.1095
     22 C          58.5557   90.0711    5.6136 C.3     1  UNL1        0.0769
     23 C          58.9018   91.4989    5.3112 C.3     1  UNL1        0.0437
     24 C          59.9770   91.8151    4.3142 C.ar    1  UNL1       -0.0184
     25 C          59.6983   92.7635    3.1859 C.ar    1  UNL1       -0.0018
     26 C          60.7735   93.0796    2.1889 C.ar    1  UNL1        0.0316
     27 C          62.1274   92.4473    2.3202 C.ar    1  UNL1        0.1674
     28 F          63.2026   92.7634    1.3232 F       1  UNL1       -0.2018
     29 C          62.4061   91.4989    3.4484 C.ar    1  UNL1        0.1671
     30 F          63.7600   90.8667    3.5796 F       1  UNL1       -0.2018
     31 C          61.3309   91.1828    4.4454 C.ar    1  UNL1        0.0277
     32 C          64.6112   86.7927   14.8999 C.1     1  UNL1        0.1006
     33 N          64.8792   85.4405   15.4911 N.1     1  UNL1       -0.1908
@<TRIPOS>BOND
     1     1     2    1
     2     2     3   ar
     3     3     4   ar
     4     4    32    1
     5    32    33    3
     6     4     5   ar
     7     5     6   ar
     8     6     7   ar
     9     7     8   ar
    10     8     9   ar
    11     9    10   ar
    12    10    16    1
    13    16    17    1
    14    17    18    1
    15    18    19    1
    16    19    22    1
    17    22    23    1
    18    23    24    1
    19    24    25   ar
    20    25    26   ar
    21    26    27   ar
    22    27    28    1
    23    27    29   ar
    24    29    30    1
    25    29    31   ar
    26    19    20    1
    27    20    21    1
    28    10    11   ar
    29    11    12   ar
    30    12    13    1
    31    12    14   ar
    32    14    15   ar
    33    15     2   ar
    34    14     5   ar
    35    11     6   ar
    36    21    16    1
    37    31    24   ar
@<TRIPOS>MOLECULE
*****
 33 37 0 0 0
SMALL
GASTEIGER

@<TRIPOS>ATOM
      1 C          60.5406   92.3535    3.3944 C.3     1  UNL1        0.0522
      2 C          61.2470   92.8782    2.1796 C.ar    1  UNL1        0.0616
      3 C          62.7421   92.9996    2.1752 C.ar    1  UNL1        0.0252
      4 C          63.4485   93.5242    0.9604 C.ar    1  UNL1        0.0740
      5 C          62.6598   93.9276   -0.2501 C.ar    1  UNL1        0.0630
      6 C          63.0766   94.4747   -1.5831 C.ar    1  UNL1        0.1051
      7 N          64.4231   94.8034   -2.1565 N.ar    1  UNL1       -0.2223
      8 C          64.5321   95.3490   -3.5495 C.ar    1  UNL1        0.2001
      9 N          63.2946   95.5658   -4.3691 N.ar    1  UNL1       -0.2075
     10 C          61.9482   95.2370   -3.7956 C.ar    1  UNL1        0.1510
     11 C          61.8392   94.6915   -2.4026 C.ar    1  UNL1        0.1111
     12 N          60.6576   94.2784   -1.5761 N.ar    1  UNL1       -0.3072
     13 C          59.2210   94.3286   -2.0047 C.3     1  UNL1        0.1320
     14 C          61.1647   93.8063   -0.2457 C.ar    1  UNL1        0.1456
     15 N          60.4583   93.2816    0.9691 N.ar    1  UNL1       -0.2325
     16 N          60.7107   95.4538   -4.6152 N.pl3   1  UNL1       -0.2892
     17 C          59.8273   96.6348   -4.3416 C.3     1  UNL1        0.1095
     18 C          58.5898   96.8516   -5.1612 C.3     1  UNL1        0.0939
     19 N          58.2357   95.8874   -6.2542 N.3     1  UNL1       -0.2695
     20 C          59.1191   94.7065   -6.5278 C.3     1  UNL1        0.0939
     21 C          60.3566   94.4897   -5.7083 C.3     1  UNL1        0.1095
     22 C          56.9983   96.1042   -7.0738 C.3     1  UNL1        0.0769
     23 C          55.7594   95.3089   -6.7863 C.3     1  UNL1        0.0437
     24 C          55.8077   94.1728   -5.8081 C.ar    1  UNL1       -0.0184
     25 C          55.8780   92.7587   -6.3039 C.ar    1  UNL1       -0.0018
     26 C          55.9263   91.6226   -5.3256 C.ar    1  UNL1        0.0316
     27 C          55.9043   91.9005   -3.8517 C.ar    1  UNL1        0.1674
     28 F          55.9526   90.7644   -2.8735 F       1  UNL1       -0.2018
     29 C          55.8340   93.3145   -3.3561 C.ar    1  UNL1        0.1671
     30 F          55.8120   93.5923   -1.8822 F       1  UNL1       -0.2018
     31 C          55.7857   94.4506   -4.3343 C.ar    1  UNL1        0.0277
     32 C          64.9436   93.6455    0.9561 C.1     1  UNL1        0.1006
     33 N          66.4386   93.7668    0.9518 N.1     1  UNL1       -0.1908
@<TRIPOS>BOND
     1     1     2    1
     2     2     3   ar
     3     3     4   ar
     4     4    32    1
     5    32    33    3
     6     4     5   ar
     7     5     6   ar
     8     6     7   ar
     9     7     8   ar
    10     8     9   ar
    11     9    10   ar
    12    10    16    1
    13    16    17    1
    14    17    18    1
    15    18    19    1
    16    19    22    1
    17    22    23    1
    18    23    24    1
    19    24    25   ar
    20    25    26   ar
    21    26    27   ar
    22    27    28    1
    23    27    29   ar
    24    29    30    1
    25    29    31   ar
    26    19    20    1
    27    20    21    1
    28    10    11   ar
    29    11    12   ar
    30    12    13    1
    31    12    14   ar
    32    14    15   ar
    33    15     2   ar
    34    14     5   ar
    35    11     6   ar
    36    21    16    1
    37    31    24   ar
