@<TRIPOS>MOLECULE
*****
 38 41 0 0 0
SMALL
GASTEIGER

@<TRIPOS>ATOM
      1 C          61.5697   86.3662    9.4071 C.ar    1  UNL1        0.0611
      2 C          60.2090   86.2096    8.7957 C.ar    1  UNL1        0.1037
      3 N          59.4250   87.4554    9.0846 N.ar    1  UNL1       -0.2269
      4 C          60.3012   88.3819    9.8745 C.ar    1  UNL1        0.1407
      5 N          60.0633   89.7514   10.4380 N.ar    1  UNL1       -0.3374
      6 C          61.1510   90.4479   11.2008 C.ar    1  UNL1        0.0734
      7 C          62.4765   89.7747   11.4001 C.ar    1  UNL1        0.0172
      8 C          62.7144   88.4051   10.8366 C.ar    1  UNL1        0.0046
      9 C          61.6268   87.7087   10.0738 C.ar    1  UNL1        0.0386
     10 H          59.1933   90.1933   10.3071 H       1  UNL1        0.1674
     11 C          63.5642   90.4712   12.1630 C.ar    1  UNL1        0.0027
     12 C          63.9905   89.9518   13.5040 C.ar    1  UNL1        0.0001
     13 C          65.0782   90.6483   14.2669 C.ar    1  UNL1        0.0013
     14 C          65.7396   91.8642   13.6886 C.ar    1  UNL1        0.0183
     15 C          65.3132   92.3835   12.3475 C.ar    1  UNL1        0.1057
     16 C          64.2256   91.6870   11.5847 C.ar    1  UNL1        0.0184
     17 S          65.9745   93.5993   11.7692 S.O2    1  UNL1        0.0104
     18 C          66.6358   94.8152   11.1909 C.3     1  UNL1        0.1816
     19 O          66.7718   93.7649   13.0290 O.2     1  UNL1       -0.1686
     20 O          65.1773   93.4338   10.5094 O.2     1  UNL1       -0.1686
     21 C          62.6788   85.3574    9.3600 C.2     1  UNL1        0.2015
     22 O          63.4450   85.1438    8.0884 O.2     1  UNL1       -0.2864
     23 C          62.7276   84.1036   13.1252 C.ar    1  UNL1        0.0920
     24 C          63.7075   82.9715   13.0342 C.ar    1  UNL1        0.0204
     25 C          64.3445   82.6348   11.7186 C.ar    1  UNL1        0.0312
     26 C          64.0017   83.4300   10.4939 C.ar    1  UNL1        0.1454
     27 F          64.6386   83.0932    9.1783 F       1  UNL1       -0.2040
     28 C          63.0218   84.5620   10.5848 C.ar    1  UNL1        0.0951
     29 C          62.3848   84.8988   11.9004 C.ar    1  UNL1        0.1598
     30 F          61.4049   86.0309   11.9912 F       1  UNL1       -0.2026
     31 N          62.0907   84.4404   14.4408 N.pl3   1  UNL1       -0.2166
     32 H          61.1687   84.1513   14.6296 H       1  UNL1        0.1734
     33 S          62.8584   85.2176   15.4686 S.O2    1  UNL1        0.0540
     34 O          63.5142   86.0118   14.3782 O.2     1  UNL1       -0.1545
     35 O          62.2026   84.4233   16.5590 O.2     1  UNL1       -0.1545
     36 C          63.6261   85.9947   16.4965 C.3     1  UNL1        0.1724
     37 C          63.0624   88.4846   16.9790 C.3     1  UNL1        0.0019
     38 C          62.9297   87.0316   17.3271 C.3     1  UNL1        0.0273
@<TRIPOS>BOND
     1    37    38    1
     2    38    36    1
     3    36    33    1
     4    33    34    2
     5    33    35    2
     6    33    31    1
     7    31    23    1
     8    23    24   ar
     9    24    25   ar
    10    25    26   ar
    11    26    27    1
    12    26    28   ar
    13    28    21    1
    14    21    22    2
    15    21     1    1
    16     1     2   ar
    17     2     3   ar
    18     3     4   ar
    19     4     5   ar
    20     5     6   ar
    21     6     7   ar
    22     7    11    1
    23    11    12   ar
    24    12    13   ar
    25    13    14   ar
    26    14    15   ar
    27    15    17    1
    28    17    18    1
    29    17    19    2
    30    17    20    2
    31    15    16   ar
    32     7     8   ar
    33     8     9   ar
    34    28    29   ar
    35    29    30    1
    36    29    23   ar
    37     9     1   ar
    38     9     4    1
    39    16    11   ar
    40    31    32    1
    41     5    10    1
@<TRIPOS>MOLECULE
*****
 38 41 0 0 0
SMALL
GASTEIGER

@<TRIPOS>ATOM
      1 C          61.8479   89.9797   11.8329 C.ar    1  UNL1        0.0611
      2 C          60.9346   90.9800   11.1884 C.ar    1  UNL1        0.1037
      3 N          60.2192   90.2957   10.0615 N.ar    1  UNL1       -0.2269
      4 C          60.6902   88.8725   10.0096 C.ar    1  UNL1        0.1407
      5 N          60.3326   87.7292    9.1070 N.ar    1  UNL1       -0.3374
      6 C          60.9815   86.3906    9.2991 C.ar    1  UNL1        0.0734
      7 C          61.9881   86.1953   10.3939 C.ar    1  UNL1        0.0172
      8 C          62.3458   87.3386   11.2966 C.ar    1  UNL1        0.0046
      9 C          61.6968   88.6772   11.1045 C.ar    1  UNL1        0.0386
     10 H          59.6719   87.8574    8.3884 H       1  UNL1        0.1674
     11 C          62.6371   84.8566   10.5860 C.ar    1  UNL1        0.0027
     12 C          63.6317   84.3543    9.5818 C.ar    1  UNL1        0.0001
     13 C          64.2806   83.0156    9.7739 C.ar    1  UNL1        0.0013
     14 C          63.9350   82.1793   10.9703 C.ar    1  UNL1        0.0183
     15 C          62.9404   82.6818   11.9745 C.ar    1  UNL1        0.1057
     16 C          62.2915   84.0204   11.7824 C.ar    1  UNL1        0.0184
     17 S          62.5947   81.8455   13.1708 S.O2    1  UNL1        0.0104
     18 C          62.2491   81.0092   14.3672 C.3     1  UNL1        0.1816
     19 O          62.7890   80.6007   12.3568 O.2     1  UNL1       -0.1686
     20 O          62.4005   83.0903   13.9849 O.2     1  UNL1       -0.1686
     21 C          62.7532   90.2368   13.0010 C.2     1  UNL1        0.2015
     22 O          62.3703   89.7519   14.3677 O.2     1  UNL1       -0.2864
     23 C          65.6058   92.4086   11.2991 C.ar    1  UNL1        0.0920
     24 C          66.6183   92.4630   12.4045 C.ar    1  UNL1        0.0204
     25 C          66.3424   91.7753   13.7088 C.ar    1  UNL1        0.0312
     26 C          65.0541   91.0332   13.9076 C.ar    1  UNL1        0.1454
     27 F          64.7782   90.3456   15.2118 F       1  UNL1       -0.2040
     28 C          64.0416   90.9789   12.8022 C.ar    1  UNL1        0.0951
     29 C          64.3175   91.6666   11.4980 C.ar    1  UNL1        0.1598
     30 F          63.3050   91.6122   10.3926 F       1  UNL1       -0.2026
     31 N          65.8817   93.0963    9.9949 N.pl3   1  UNL1       -0.2166
     32 H          65.6557   92.6513    9.1463 H       1  UNL1        0.1734
     33 S          66.5020   94.4620    9.9836 S.O2    1  UNL1        0.0540
     34 O          65.2848   95.0204   10.6593 O.2     1  UNL1       -0.1545
     35 O          67.7192   93.9035    9.3080 O.2     1  UNL1       -0.1545
     36 C          67.1224   95.8276    9.9724 C.3     1  UNL1        0.1724
     37 C          66.3708   96.8518    7.7060 C.3     1  UNL1        0.0019
     38 C          67.4619   96.4863    8.6682 C.3     1  UNL1        0.0273
@<TRIPOS>BOND
     1    37    38    1
     2    38    36    1
     3    36    33    1
     4    33    34    2
     5    33    35    2
     6    33    31    1
     7    31    23    1
     8    23    24   ar
     9    24    25   ar
    10    25    26   ar
    11    26    27    1
    12    26    28   ar
    13    28    21    1
    14    21    22    2
    15    21     1    1
    16     1     2   ar
    17     2     3   ar
    18     3     4   ar
    19     4     5   ar
    20     5     6   ar
    21     6     7   ar
    22     7    11    1
    23    11    12   ar
    24    12    13   ar
    25    13    14   ar
    26    14    15   ar
    27    15    17    1
    28    17    18    1
    29    17    19    2
    30    17    20    2
    31    15    16   ar
    32     7     8   ar
    33     8     9   ar
    34    28    29   ar
    35    29    30    1
    36    29    23   ar
    37     9     1   ar
    38     9     4    1
    39    16    11   ar
    40    31    32    1
    41     5    10    1
@<TRIPOS>MOLECULE
*****
 38 41 0 0 0
SMALL
GASTEIGER

@<TRIPOS>ATOM
      1 C          62.0132   86.9559   11.2406 C.ar    1  UNL1        0.0611
      2 C          60.7591   86.5367   10.5323 C.ar    1  UNL1        0.1037
      3 N          60.1999   87.7383    9.8298 N.ar    1  UNL1       -0.2269
      4 C          61.1084   88.9000   10.1039 C.ar    1  UNL1        0.1407
      5 N          61.0599   90.3357    9.6721 N.ar    1  UNL1       -0.3374
      6 C          62.1321   91.2878   10.1123 C.ar    1  UNL1        0.0734
      7 C          63.2528   90.8042   10.9842 C.ar    1  UNL1        0.0172
      8 C          63.3013   89.3685   11.4159 C.ar    1  UNL1        0.0046
      9 C          62.2290   88.4164   10.9758 C.ar    1  UNL1        0.0386
     10 H          60.3243   90.6531    9.0998 H       1  UNL1        0.1674
     11 C          64.3251   91.7564   11.4243 C.ar    1  UNL1        0.0027
     12 C          64.9234   92.7185   10.4413 C.ar    1  UNL1        0.0001
     13 C          65.9957   93.6707   10.8815 C.ar    1  UNL1        0.0013
     14 C          66.4696   93.6607   12.3046 C.ar    1  UNL1        0.0183
     15 C          65.8712   92.6985   13.2876 C.ar    1  UNL1        0.1057
     16 C          64.7990   91.7464   12.8474 C.ar    1  UNL1        0.0184
     17 S          66.3451   92.6884   14.7107 S.O2    1  UNL1        0.0104
     18 C          66.8190   92.6784   16.1339 C.3     1  UNL1        0.1816
     19 O          67.6787   93.2154   14.2704 O.2     1  UNL1       -0.1686
     20 O          65.0116   92.1615   15.1511 O.2     1  UNL1       -0.1686
     21 C          62.8964   86.0700   12.0683 C.2     1  UNL1        0.2015
     22 O          63.4435   86.5654   13.3740 O.2     1  UNL1       -0.2864
     23 C          63.6542   82.1744   12.0920 C.ar    1  UNL1        0.0920
     24 C          63.9047   81.9255   10.6341 C.ar    1  UNL1        0.0204
     25 C          63.8191   83.0581    9.6544 C.ar    1  UNL1        0.0312
     26 C          63.4830   84.4395   10.1324 C.ar    1  UNL1        0.1454
     27 F          63.3975   85.5721    9.1526 F       1  UNL1       -0.2040
     28 C          63.2325   84.6884   11.5902 C.ar    1  UNL1        0.0951
     29 C          63.3181   83.5558   12.5700 C.ar    1  UNL1        0.1598
     30 F          63.0675   83.8048   14.0278 F       1  UNL1       -0.2026
     31 N          63.7397   81.0418   13.0717 N.pl3   1  UNL1       -0.2166
     32 H          64.6174   80.7408   13.4008 H       1  UNL1        0.1734
     33 S          62.4880   80.3678   13.5501 S.O2    1  UNL1        0.0540
     34 O          62.5054   81.2142   14.7883 O.2     1  UNL1       -0.1545
     35 O          62.4705   79.5214   12.3118 O.2     1  UNL1       -0.1545
     36 C          61.2363   79.6937   14.0284 C.3     1  UNL1        0.1724
     37 C          58.6925   79.7869   14.5487 C.3     1  UNL1        0.0019
     38 C          59.9661   80.4799   14.1643 C.3     1  UNL1        0.0273
@<TRIPOS>BOND
     1    37    38    1
     2    38    36    1
     3    36    33    1
     4    33    34    2
     5    33    35    2
     6    33    31    1
     7    31    23    1
     8    23    24   ar
     9    24    25   ar
    10    25    26   ar
    11    26    27    1
    12    26    28   ar
    13    28    21    1
    14    21    22    2
    15    21     1    1
    16     1     2   ar
    17     2     3   ar
    18     3     4   ar
    19     4     5   ar
    20     5     6   ar
    21     6     7   ar
    22     7    11    1
    23    11    12   ar
    24    12    13   ar
    25    13    14   ar
    26    14    15   ar
    27    15    17    1
    28    17    18    1
    29    17    19    2
    30    17    20    2
    31    15    16   ar
    32     7     8   ar
    33     8     9   ar
    34    28    29   ar
    35    29    30    1
    36    29    23   ar
    37     9     1   ar
    38     9     4    1
    39    16    11   ar
    40    31    32    1
    41     5    10    1
@<TRIPOS>MOLECULE
*****
 38 41 0 0 0
SMALL
GASTEIGER

@<TRIPOS>ATOM
      1 C          62.0306   86.9452   11.2165 C.ar    1  UNL1        0.0611
      2 C          60.8123   86.5467   10.4373 C.ar    1  UNL1        0.1037
      3 N          60.2955   87.7644    9.7303 N.ar    1  UNL1       -0.2269
      4 C          61.1943   88.9156   10.0725 C.ar    1  UNL1        0.1407
      5 N          61.1749   90.3594    9.6664 N.ar    1  UNL1       -0.3374
      6 C          62.2277   91.2968   10.1788 C.ar    1  UNL1        0.0734
      7 C          63.3000   90.7905   11.0973 C.ar    1  UNL1        0.0172
      8 C          63.3195   89.3467   11.5035 C.ar    1  UNL1        0.0046
      9 C          62.2667   88.4092   10.9911 C.ar    1  UNL1        0.0386
     10 H          60.4711   90.6917    9.0635 H       1  UNL1        0.1674
     11 C          64.3529   91.7280   11.6098 C.ar    1  UNL1        0.0027
     12 C          64.7914   91.6526   13.0422 C.ar    1  UNL1        0.0001
     13 C          65.8443   92.5902   13.5546 C.ar    1  UNL1        0.0013
     14 C          66.4587   93.6031   12.6345 C.ar    1  UNL1        0.0183
     15 C          66.0201   93.6785   11.2020 C.ar    1  UNL1        0.1057
     16 C          64.9673   92.7409   10.6896 C.ar    1  UNL1        0.0184
     17 S          66.6345   94.6914   10.2819 S.O2    1  UNL1        0.0104
     18 C          67.2488   95.7043    9.3618 C.3     1  UNL1        0.1816
     19 O          67.8181   93.7919   10.0820 O.2     1  UNL1       -0.1686
     20 O          65.4508   95.5908   10.4818 O.2     1  UNL1       -0.1686
     21 C          62.8660   86.0388   12.0712 C.2     1  UNL1        0.2015
     22 O          63.3579   86.5107   13.4072 O.2     1  UNL1       -0.2864
     23 C          63.6113   82.1407   12.0800 C.ar    1  UNL1        0.0920
     24 C          63.8969   81.9034   10.6267 C.ar    1  UNL1        0.0204
     25 C          63.8389   83.0445    9.6549 C.ar    1  UNL1        0.0312
     26 C          63.4953   84.4230   10.1363 C.ar    1  UNL1        0.1454
     27 F          63.4373   85.5641    9.1645 F       1  UNL1       -0.2040
     28 C          63.2097   84.6602   11.5896 C.ar    1  UNL1        0.0951
     29 C          63.2677   83.5191   12.5614 C.ar    1  UNL1        0.1598
     30 F          62.9821   83.7565   14.0148 F       1  UNL1       -0.2026
     31 N          63.6693   80.9995   13.0518 N.pl3   1  UNL1       -0.2166
     32 H          64.5384   80.6874   13.3932 H       1  UNL1        0.1734
     33 S          62.4032   80.3340   13.5036 S.O2    1  UNL1        0.0540
     34 O          62.3932   81.1894   14.7357 O.2     1  UNL1       -0.1545
     35 O          62.4132   79.4787   12.2714 O.2     1  UNL1       -0.1545
     36 C          61.1371   79.6685   13.9552 C.3     1  UNL1        0.1724
     37 C          58.6225   79.8155   14.5921 C.3     1  UNL1        0.0019
     38 C          59.9025   80.4871   14.1914 C.3     1  UNL1        0.0273
@<TRIPOS>BOND
     1    37    38    1
     2    38    36    1
     3    36    33    1
     4    33    34    2
     5    33    35    2
     6    33    31    1
     7    31    23    1
     8    23    24   ar
     9    24    25   ar
    10    25    26   ar
    11    26    27    1
    12    26    28   ar
    13    28    21    1
    14    21    22    2
    15    21     1    1
    16     1     2   ar
    17     2     3   ar
    18     3     4   ar
    19     4     5   ar
    20     5     6   ar
    21     6     7   ar
    22     7    11    1
    23    11    12   ar
    24    12    13   ar
    25    13    14   ar
    26    14    15   ar
    27    15    17    1
    28    17    18    1
    29    17    19    2
    30    17    20    2
    31    15    16   ar
    32     7     8   ar
    33     8     9   ar
    34    28    29   ar
    35    29    30    1
    36    29    23   ar
    37     9     1   ar
    38     9     4    1
    39    16    11   ar
    40    31    32    1
    41     5    10    1
@<TRIPOS>MOLECULE
*****
 38 41 0 0 0
SMALL
GASTEIGER

@<TRIPOS>ATOM
      1 C          60.3912   89.2966    9.6443 C.ar    1  UNL1        0.0611
      2 C          59.7014   89.7554    8.3939 C.ar    1  UNL1        0.1037
      3 N          59.7911   88.6507    7.3832 N.ar    1  UNL1       -0.2269
      4 C          60.5364   87.5092    8.0089 C.ar    1  UNL1        0.1407
      5 N          60.9252   86.1579    7.4868 N.ar    1  UNL1       -0.3374
      6 C          61.6849   85.2058    8.3621 C.ar    1  UNL1        0.0734
      7 C          62.0559   85.6050    9.7596 C.ar    1  UNL1        0.0172
      8 C          61.6671   86.9564   10.2818 C.ar    1  UNL1        0.0046
      9 C          60.9073   87.9084    9.4064 C.ar    1  UNL1        0.0386
     10 H          60.6817   85.8958    6.5696 H       1  UNL1        0.1674
     11 C          62.8157   84.6529   10.6350 C.ar    1  UNL1        0.0027
     12 C          63.8041   83.7019   10.0279 C.ar    1  UNL1        0.0001
     13 C          64.5639   82.7498   10.9032 C.ar    1  UNL1        0.0013
     14 C          64.3352   82.7486   12.3857 C.ar    1  UNL1        0.0183
     15 C          63.3467   83.6996   12.9928 C.ar    1  UNL1        0.1057
     16 C          62.5870   84.6517   12.1174 C.ar    1  UNL1        0.0184
     17 S          63.1180   83.6985   14.4753 S.O2    1  UNL1        0.0104
     18 C          62.8893   83.6973   15.9577 C.3     1  UNL1        0.1816
     19 O          63.7048   82.3209   14.5647 O.2     1  UNL1       -0.1686
     20 O          62.5312   85.0761   14.3858 O.2     1  UNL1       -0.1686
     21 C          60.5391   90.0873   10.9104 C.2     1  UNL1        0.2015
     22 O          59.3254   90.4540   11.7118 O.2     1  UNL1       -0.2864
     23 C          63.6584   90.7451   13.2743 C.ar    1  UNL1        0.0920
     24 C          64.6243   91.3592   12.3047 C.ar    1  UNL1        0.0204
     25 C          64.2284   91.5493   10.8704 C.ar    1  UNL1        0.0312
     26 C          62.8668   91.1254   10.4056 C.ar    1  UNL1        0.1454
     27 F          62.4709   91.3155    8.9714 F       1  UNL1       -0.2040
     28 C          61.9009   90.5113   11.3752 C.ar    1  UNL1        0.0951
     29 C          62.2968   90.3212   12.8095 C.ar    1  UNL1        0.1598
     30 F          61.3308   89.7070   13.7790 F       1  UNL1       -0.2026
     31 N          64.0543   90.5550   14.7085 N.pl3   1  UNL1       -0.2166
     32 H          64.4810   91.2915   15.2032 H       1  UNL1        0.1734
     33 S          63.8000   89.2427   15.3891 S.O2    1  UNL1        0.0540
     34 O          62.9773   89.9420   16.4302 O.2     1  UNL1       -0.1545
     35 O          64.6227   88.5433   14.3480 O.2     1  UNL1       -0.1545
     36 C          63.5458   87.9303   16.0696 C.3     1  UNL1        0.1724
     37 C          62.7417   86.6137   18.1601 C.3     1  UNL1        0.0019
     38 C          62.8229   87.8944   17.3835 C.3     1  UNL1        0.0273
@<TRIPOS>BOND
     1    37    38    1
     2    38    36    1
     3    36    33    1
     4    33    34    2
     5    33    35    2
     6    33    31    1
     7    31    23    1
     8    23    24   ar
     9    24    25   ar
    10    25    26   ar
    11    26    27    1
    12    26    28   ar
    13    28    21    1
    14    21    22    2
    15    21     1    1
    16     1     2   ar
    17     2     3   ar
    18     3     4   ar
    19     4     5   ar
    20     5     6   ar
    21     6     7   ar
    22     7    11    1
    23    11    12   ar
    24    12    13   ar
    25    13    14   ar
    26    14    15   ar
    27    15    17    1
    28    17    18    1
    29    17    19    2
    30    17    20    2
    31    15    16   ar
    32     7     8   ar
    33     8     9   ar
    34    28    29   ar
    35    29    30    1
    36    29    23   ar
    37     9     1   ar
    38     9     4    1
    39    16    11   ar
    40    31    32    1
    41     5    10    1
@<TRIPOS>MOLECULE
*****
 38 41 0 0 0
SMALL
GASTEIGER

@<TRIPOS>ATOM
      1 C          63.6723   85.6702   15.5029 C.ar    1  UNL1        0.0611
      2 C          62.7415   85.1141   16.5395 C.ar    1  UNL1        0.1037
      3 N          62.2044   86.2611   17.3432 N.ar    1  UNL1       -0.2269
      4 C          62.8032   87.5260   16.8034 C.ar    1  UNL1        0.1407
      5 N          62.6396   88.9632   17.2005 N.ar    1  UNL1       -0.3374
      6 C          63.3833   90.0351   16.4604 C.ar    1  UNL1        0.0734
      7 C          64.2905   89.6699   15.3230 C.ar    1  UNL1        0.0172
      8 C          64.4541   88.2327   14.9258 C.ar    1  UNL1        0.0046
      9 C          63.7105   87.1608   15.6660 C.ar    1  UNL1        0.0386
     10 H          62.0442   89.2029   17.9470 H       1  UNL1        0.1674
     11 C          65.0341   90.7419   14.5828 C.ar    1  UNL1        0.0027
     12 C          64.5631   91.1832   13.2288 C.ar    1  UNL1        0.0001
     13 C          65.3068   92.2552   12.4886 C.ar    1  UNL1        0.0013
     14 C          66.5214   92.8859   13.1025 C.ar    1  UNL1        0.0183
     15 C          66.9924   92.4446   14.4566 C.ar    1  UNL1        0.1057
     16 C          66.2488   91.3726   15.1967 C.ar    1  UNL1        0.0184
     17 S          68.2071   93.0753   15.0705 S.O2    1  UNL1        0.0104
     18 C          69.4217   93.7060   15.6844 C.3     1  UNL1        0.1816
     19 O          67.3515   93.6756   16.1465 O.2     1  UNL1       -0.1686
     20 O          69.0626   92.4751   13.9945 O.2     1  UNL1       -0.1686
     21 C          64.4316   84.8752   14.4824 C.2     1  UNL1        0.2015
     22 O          65.9017   84.6364   14.6599 O.2     1  UNL1       -0.2864
     23 C          62.4405   84.6907   11.0543 C.ar    1  UNL1        0.0920
     24 C          62.2990   83.2066   10.8882 C.ar    1  UNL1        0.0204
     25 C          62.8684   82.2788   11.9202 C.ar    1  UNL1        0.0312
     26 C          63.5792   82.8349   13.1182 C.ar    1  UNL1        0.1454
     27 F          64.1486   81.9071   14.1502 F       1  UNL1       -0.2040
     28 C          63.7207   84.3190   13.2843 C.ar    1  UNL1        0.0951
     29 C          63.1513   85.2468   12.2524 C.ar    1  UNL1        0.1598
     30 F          63.2929   86.7309   12.4186 F       1  UNL1       -0.2026
     31 N          61.8711   85.6185   10.0224 N.pl3   1  UNL1       -0.2166
     32 H          61.6137   85.2722    9.1375 H       1  UNL1        0.1734
     33 S          61.6939   87.0741   10.3387 S.O2    1  UNL1        0.0540
     34 O          60.6169   86.7288   11.3240 O.2     1  UNL1       -0.1545
     35 O          62.7709   87.4193    9.3535 O.2     1  UNL1       -0.1545
     36 C          61.5168   88.5296   10.6550 C.3     1  UNL1        0.1724
     37 C          62.5687   90.8519   10.1546 C.3     1  UNL1        0.0019
     38 C          62.7043   89.4460   10.6595 C.3     1  UNL1        0.0273
@<TRIPOS>BOND
     1    37    38    1
     2    38    36    1
     3    36    33    1
     4    33    34    2
     5    33    35    2
     6    33    31    1
     7    31    23    1
     8    23    24   ar
     9    24    25   ar
    10    25    26   ar
    11    26    27    1
    12    26    28   ar
    13    28    21    1
    14    21    22    2
    15    21     1    1
    16     1     2   ar
    17     2     3   ar
    18     3     4   ar
    19     4     5   ar
    20     5     6   ar
    21     6     7   ar
    22     7    11    1
    23    11    12   ar
    24    12    13   ar
    25    13    14   ar
    26    14    15   ar
    27    15    17    1
    28    17    18    1
    29    17    19    2
    30    17    20    2
    31    15    16   ar
    32     7     8   ar
    33     8     9   ar
    34    28    29   ar
    35    29    30    1
    36    29    23   ar
    37     9     1   ar
    38     9     4    1
    39    16    11   ar
    40    31    32    1
    41     5    10    1
@<TRIPOS>MOLECULE
*****
 38 41 0 0 0
SMALL
GASTEIGER

@<TRIPOS>ATOM
      1 C          60.4239   89.3191    9.6301 C.ar    1  UNL1        0.0611
      2 C          59.7292   89.6491    8.3422 C.ar    1  UNL1        0.1037
      3 N          59.8096   88.4455    7.4506 N.ar    1  UNL1       -0.2269
      4 C          60.5539   87.3717    8.1874 C.ar    1  UNL1        0.1407
      5 N          60.9350   85.9720    7.8058 N.ar    1  UNL1       -0.3374
      6 C          61.6958   85.1123    8.7712 C.ar    1  UNL1        0.0734
      7 C          62.0754   85.6521   10.1181 C.ar    1  UNL1        0.0172
      8 C          61.6943   87.0518   10.4998 C.ar    1  UNL1        0.0046
      9 C          60.9336   87.9116    9.5344 C.ar    1  UNL1        0.0386
     10 H          60.6858   85.6177    6.9217 H       1  UNL1        0.1674
     11 C          62.8362   84.7923   11.0835 C.ar    1  UNL1        0.0027
     12 C          63.5027   83.5365   10.6052 C.ar    1  UNL1        0.0001
     13 C          64.2635   82.6767   11.5706 C.ar    1  UNL1        0.0013
     14 C          64.3578   83.0727   13.0143 C.ar    1  UNL1        0.0183
     15 C          63.6913   84.3285   13.4926 C.ar    1  UNL1        0.1057
     16 C          62.9306   85.1883   12.5272 C.ar    1  UNL1        0.0184
     17 S          63.7856   84.7245   14.9363 S.O2    1  UNL1        0.0104
     18 C          63.8800   85.1205   16.3800 C.3     1  UNL1        0.1816
     19 O          63.5766   86.1604   14.5561 O.2     1  UNL1       -0.1686
     20 O          63.9947   83.2886   15.3165 O.2     1  UNL1       -0.1686
     21 C          60.5813   90.2356   10.8070 C.2     1  UNL1        0.2015
     22 O          59.3682   90.7812   11.5003 O.2     1  UNL1       -0.2864
     23 C          63.7080   90.7248   13.2018 C.ar    1  UNL1        0.0920
     24 C          64.6930   91.3487   12.2580 C.ar    1  UNL1        0.0204
     25 C          64.3074   91.6015   10.8307 C.ar    1  UNL1        0.0312
     26 C          62.9369   91.2305   10.3469 C.ar    1  UNL1        0.1454
     27 F          62.5513   91.4833    8.9196 F       1  UNL1       -0.2040
     28 C          61.9519   90.6067   11.2907 C.ar    1  UNL1        0.0951
     29 C          62.3375   90.3539   12.7180 C.ar    1  UNL1        0.1598
     30 F          61.3524   89.7300   13.6617 F       1  UNL1       -0.2026
     31 N          64.0935   90.4720   14.6291 N.pl3   1  UNL1       -0.2166
     32 H          63.7400   89.6844   15.1024 H       1  UNL1        0.1734
     33 S          65.0177   91.4191   15.3354 S.O2    1  UNL1        0.0540
     34 O          63.8564   91.9824   16.0996 O.2     1  UNL1       -0.1545
     35 O          66.1790   90.8558   14.5712 O.2     1  UNL1       -0.1545
     36 C          65.9420   92.3662   16.0416 C.3     1  UNL1        0.1724
     37 C          68.3466   93.3355   15.8721 C.3     1  UNL1        0.0019
     38 C          66.9932   93.1052   15.2677 C.3     1  UNL1        0.0273
@<TRIPOS>BOND
     1    37    38    1
     2    38    36    1
     3    36    33    1
     4    33    34    2
     5    33    35    2
     6    33    31    1
     7    31    23    1
     8    23    24   ar
     9    24    25   ar
    10    25    26   ar
    11    26    27    1
    12    26    28   ar
    13    28    21    1
    14    21    22    2
    15    21     1    1
    16     1     2   ar
    17     2     3   ar
    18     3     4   ar
    19     4     5   ar
    20     5     6   ar
    21     6     7   ar
    22     7    11    1
    23    11    12   ar
    24    12    13   ar
    25    13    14   ar
    26    14    15   ar
    27    15    17    1
    28    17    18    1
    29    17    19    2
    30    17    20    2
    31    15    16   ar
    32     7     8   ar
    33     8     9   ar
    34    28    29   ar
    35    29    30    1
    36    29    23   ar
    37     9     1   ar
    38     9     4    1
    39    16    11   ar
    40    31    32    1
    41     5    10    1
@<TRIPOS>MOLECULE
*****
 38 41 0 0 0
SMALL
GASTEIGER

@<TRIPOS>ATOM
      1 C          63.6930   85.7284   15.4435 C.ar    1  UNL1        0.0611
      2 C          62.7839   85.1577   16.4913 C.ar    1  UNL1        0.1037
      3 N          62.2771   86.2915   17.3326 N.ar    1  UNL1       -0.2269
      4 C          62.8730   87.5628   16.8046 C.ar    1  UNL1        0.1407
      5 N          62.7318   88.9924   17.2362 N.ar    1  UNL1       -0.3374
      6 C          63.4656   90.0740   16.5003 C.ar    1  UNL1        0.0734
      7 C          64.3406   89.7259   15.3327 C.ar    1  UNL1        0.0172
      8 C          64.4818   88.2964   14.9011 C.ar    1  UNL1        0.0046
      9 C          63.7480   87.2148   15.6371 C.ar    1  UNL1        0.0386
     10 H          62.1574   89.2208   18.0025 H       1  UNL1        0.1674
     11 C          65.0745   90.8076   14.5968 C.ar    1  UNL1        0.0027
     12 C          64.5769   91.2770   13.2619 C.ar    1  UNL1        0.0001
     13 C          65.3108   92.3586   12.5259 C.ar    1  UNL1        0.0013
     14 C          66.5422   92.9708   13.1249 C.ar    1  UNL1        0.0183
     15 C          67.0398   92.5013   14.4599 C.ar    1  UNL1        0.1057
     16 C          66.3059   91.4198   15.1958 C.ar    1  UNL1        0.0184
     17 S          68.2712   93.1135   15.0589 S.O2    1  UNL1        0.0104
     18 C          69.5026   93.7257   15.6579 C.3     1  UNL1        0.1816
     19 O          67.4325   93.7626   16.1197 O.2     1  UNL1       -0.1686
     20 O          69.1099   92.4644   13.9981 O.2     1  UNL1       -0.1686
     21 C          64.4195   84.9494   14.3873 C.2     1  UNL1        0.2015
     22 O          65.8579   84.5746   14.5879 O.2     1  UNL1       -0.2864
     23 C          62.3949   85.1872   10.9822 C.ar    1  UNL1        0.0920
     24 C          62.2833   83.7366   10.6169 C.ar    1  UNL1        0.0204
     25 C          62.8838   82.6903   11.5083 C.ar    1  UNL1        0.0312
     26 C          63.5958   83.0945   12.7651 C.ar    1  UNL1        0.1454
     27 F          64.1962   82.0483   13.6566 F       1  UNL1       -0.2040
     28 C          63.7074   84.5451   13.1305 C.ar    1  UNL1        0.0951
     29 C          63.1070   85.5914   12.2390 C.ar    1  UNL1        0.1598
     30 F          63.2186   87.0419   12.6043 F       1  UNL1       -0.2026
     31 N          61.7945   86.2335   10.0907 N.pl3   1  UNL1       -0.2166
     32 H          61.5280   87.1045   10.4642 H       1  UNL1        0.1734
     33 S          61.6002   85.9526    8.6301 S.O2    1  UNL1        0.0540
     34 O          60.1140   86.0474    8.8096 O.2     1  UNL1       -0.1545
     35 O          63.0864   85.8578    8.4506 O.2     1  UNL1       -0.1545
     36 C          61.4059   85.6718    7.1695 C.3     1  UNL1        0.1724
     37 C          61.7529   83.9700    5.2371 C.3     1  UNL1        0.0019
     38 C          62.2489   84.6360    6.4863 C.3     1  UNL1        0.0273
@<TRIPOS>BOND
     1    37    38    1
     2    38    36    1
     3    36    33    1
     4    33    34    2
     5    33    35    2
     6    33    31    1
     7    31    23    1
     8    23    24   ar
     9    24    25   ar
    10    25    26   ar
    11    26    27    1
    12    26    28   ar
    13    28    21    1
    14    21    22    2
    15    21     1    1
    16     1     2   ar
    17     2     3   ar
    18     3     4   ar
    19     4     5   ar
    20     5     6   ar
    21     6     7   ar
    22     7    11    1
    23    11    12   ar
    24    12    13   ar
    25    13    14   ar
    26    14    15   ar
    27    15    17    1
    28    17    18    1
    29    17    19    2
    30    17    20    2
    31    15    16   ar
    32     7     8   ar
    33     8     9   ar
    34    28    29   ar
    35    29    30    1
    36    29    23   ar
    37     9     1   ar
    38     9     4    1
    39    16    11   ar
    40    31    32    1
    41     5    10    1
@<TRIPOS>MOLECULE
*****
 38 41 0 0 0
SMALL
GASTEIGER

@<TRIPOS>ATOM
      1 C          61.8108   86.5575   10.6354 C.ar    1  UNL1        0.0611
      2 C          60.4629   86.2841   10.0367 C.ar    1  UNL1        0.1037
      3 N          59.7858   87.6012    9.7985 N.ar    1  UNL1       -0.2269
      4 C          60.7152   88.6886   10.2499 C.ar    1  UNL1        0.1407
      5 N          60.5835   90.1827   10.2569 N.ar    1  UNL1       -0.3374
      6 C          61.7034   91.0318   10.7810 C.ar    1  UNL1        0.0734
      7 C          62.9549   90.3868   11.2983 C.ar    1  UNL1        0.0172
      8 C          63.0866   88.8926   11.2913 C.ar    1  UNL1        0.0046
      9 C          61.9667   88.0435   10.7672 C.ar    1  UNL1        0.0386
     10 H          59.7621   90.6061    9.9174 H       1  UNL1        0.1674
     11 C          64.0749   91.2360   11.8224 C.ar    1  UNL1        0.0027
     12 C          64.4823   91.1347   13.2625 C.ar    1  UNL1        0.0001
     13 C          65.6022   91.9839   13.7866 C.ar    1  UNL1        0.0013
     14 C          66.3147   92.9344   12.8707 C.ar    1  UNL1        0.0183
     15 C          65.9072   93.0357   11.4306 C.ar    1  UNL1        0.1057
     16 C          64.7873   92.1865   10.9065 C.ar    1  UNL1        0.0184
     17 S          66.6197   93.9863   10.5147 S.O2    1  UNL1        0.0104
     18 C          67.3321   94.9368    9.5988 C.3     1  UNL1        0.1816
     19 O          65.4577   94.9317   10.5920 O.2     1  UNL1       -0.1686
     20 O          67.7817   93.0408   10.4374 O.2     1  UNL1       -0.1686
     21 C          62.8248   85.5259   11.0326 C.2     1  UNL1        0.2015
     22 O          63.6961   84.8904    9.9901 O.2     1  UNL1       -0.2864
     23 C          62.6759   83.3703   14.3615 C.ar    1  UNL1        0.0920
     24 C          63.2529   84.3380   15.3518 C.ar    1  UNL1        0.0204
     25 C          63.6872   85.7015   14.9024 C.ar    1  UNL1        0.0312
     26 C          63.5446   86.0976   13.4627 C.ar    1  UNL1        0.1454
     27 F          63.9789   87.4612   13.0133 F       1  UNL1       -0.2040
     28 C          62.9675   85.1299   12.4724 C.ar    1  UNL1        0.0951
     29 C          62.5332   83.7664   12.9218 C.ar    1  UNL1        0.1598
     30 F          61.9562   82.7988   11.9314 F       1  UNL1       -0.2026
     31 N          62.2415   82.0067   14.8109 N.pl3   1  UNL1       -0.2166
     32 H          61.8926   81.8767   15.7222 H       1  UNL1        0.1734
     33 S          62.3388   80.8412   13.8717 S.O2    1  UNL1        0.0540
     34 O          63.8357   80.9221   13.9265 O.2     1  UNL1       -0.1545
     35 O          60.8420   80.7604   13.8169 O.2     1  UNL1       -0.1545
     36 C          62.4361   79.6757   12.9325 C.3     1  UNL1        0.1724
     37 C          62.7462   78.7631   10.5198 C.3     1  UNL1        0.0019
     38 C          62.8156   79.8978   11.4984 C.3     1  UNL1        0.0273
@<TRIPOS>BOND
     1    37    38    1
     2    38    36    1
     3    36    33    1
     4    33    34    2
     5    33    35    2
     6    33    31    1
     7    31    23    1
     8    23    24   ar
     9    24    25   ar
    10    25    26   ar
    11    26    27    1
    12    26    28   ar
    13    28    21    1
    14    21    22    2
    15    21     1    1
    16     1     2   ar
    17     2     3   ar
    18     3     4   ar
    19     4     5   ar
    20     5     6   ar
    21     6     7   ar
    22     7    11    1
    23    11    12   ar
    24    12    13   ar
    25    13    14   ar
    26    14    15   ar
    27    15    17    1
    28    17    18    1
    29    17    19    2
    30    17    20    2
    31    15    16   ar
    32     7     8   ar
    33     8     9   ar
    34    28    29   ar
    35    29    30    1
    36    29    23   ar
    37     9     1   ar
    38     9     4    1
    39    16    11   ar
    40    31    32    1
    41     5    10    1
