@<TRIPOS>MOLECULE
*****
 29 32 0 0 0
SMALL
GASTEIGER

@<TRIPOS>ATOM
      1 N          63.4787   84.0162   10.6975 N.am    1  UNL1       -0.2863
      2 C          62.4416   85.0516   10.3777 C.2     1  UNL1        0.3047
      3 O          61.3044   85.2921   11.3259 O.2     1  UNL1       -0.2525
      4 N          62.5416   85.8466    9.1096 N.am    1  UNL1       -0.2683
      5 H          64.2250   83.8584   10.0752 H       1  UNL1        0.1512
      6 H          63.2880   85.6888    8.4873 H       1  UNL1        0.1564
      7 C          62.7205   79.8020   14.0990 C.3     1  UNL1        0.0437
      8 C          62.9317   80.9680   13.1793 C.3     1  UNL1        0.1352
      9 C          62.6115   79.8997   12.1762 C.3     1  UNL1        0.0437
     10 C          63.0317   81.7629   11.9112 C.3     1  UNL1        0.0642
     11 C          63.3786   83.2212   11.9656 C.3     1  UNL1        0.1020
     12 C          63.6255   83.8846   13.2882 C.ar    1  UNL1        0.0319
     13 C          63.9724   85.3429   13.3426 C.ar    1  UNL1        0.0300
     14 C          64.2193   86.0062   14.6651 C.ar    1  UNL1        0.1401
     15 F          64.5662   87.4646   14.7195 F       1  UNL1       -0.2042
     16 C          64.1193   85.2112   15.9331 C.ar    1  UNL1        0.0327
     17 C          63.7724   83.7530   15.8787 C.ar    1  UNL1        0.0389
     18 C          63.5255   83.0896   14.5562 C.ar    1  UNL1        0.1358
     19 O          63.1786   81.6313   14.5018 O.3     1  UNL1       -0.4828
     20 C          61.5045   86.8821    8.7898 C.ar    1  UNL1        0.0516
     21 C          60.5132   86.6363    7.6913 C.ar    1  UNL1        0.0147
     22 C          59.4761   87.6718    7.3715 C.ar    1  UNL1        0.0013
     23 C          59.4304   88.9530    8.1502 C.ar    1  UNL1        0.0016
     24 C          60.4217   89.1987    9.2487 C.ar    1  UNL1        0.0204
     25 C          60.3760   90.4799   10.0275 C.ar    1  UNL1        0.0989
     26 N          61.3673   90.7257   11.1260 N.ar    1  UNL1       -0.2423
     27 C          62.4045   89.6902   11.4458 C.ar    1  UNL1        0.0989
     28 C          62.4502   88.4090   10.6671 C.ar    1  UNL1        0.0219
     29 C          61.4588   88.1633    9.5685 C.ar    1  UNL1        0.0166
@<TRIPOS>BOND
     1     7     8    1
     2     8     9    1
     3     8    10    1
     4    10    11    1
     5    11     1    1
     6     1     2   am
     7     2     3    2
     8     2     4   am
     9     4    20    1
    10    20    21   ar
    11    21    22   ar
    12    22    23   ar
    13    23    24   ar
    14    24    25   ar
    15    25    26   ar
    16    26    27   ar
    17    27    28   ar
    18    28    29   ar
    19    11    12    1
    20    12    13   ar
    21    13    14   ar
    22    14    15    1
    23    14    16   ar
    24    16    17   ar
    25    17    18   ar
    26    18    19    1
    27    19     8    1
    28    29    20   ar
    29    18    12   ar
    30    29    24   ar
    31     1     5    1
    32     4     6    1
@<TRIPOS>MOLECULE
*****
 29 32 0 0 0
SMALL
GASTEIGER

@<TRIPOS>ATOM
      1 N          61.5351   88.8834   11.8297 N.am    1  UNL1       -0.2863
      2 C          62.7136   89.4133   12.5914 C.2     1  UNL1        0.3047
      3 O          63.9694   88.5991   12.6919 O.2     1  UNL1       -0.2525
      4 N          62.6364   90.7575   13.2526 N.am    1  UNL1       -0.2683
      5 H          60.7109   89.4178   11.7637 H       1  UNL1        0.1512
      6 H          61.8122   91.2919   13.1867 H       1  UNL1        0.1564
      7 C          62.7596   83.6259   10.9561 C.3     1  UNL1        0.0437
      8 C          62.4156   85.0684   11.1808 C.3     1  UNL1        0.1352
      9 C          63.1839   84.7851   12.4376 C.3     1  UNL1        0.0437
     10 C          62.3384   86.4126   11.8420 C.3     1  UNL1        0.0642
     11 C          61.6123   87.5392   11.1685 C.3     1  UNL1        0.1020
     12 C          60.9635   87.3216    9.8337 C.ar    1  UNL1        0.0319
     13 C          60.2374   88.4481    9.1601 C.ar    1  UNL1        0.0300
     14 C          59.5886   88.2305    7.8254 C.ar    1  UNL1        0.1401
     15 F          58.8625   89.3571    7.1518 F       1  UNL1       -0.2042
     16 C          59.6658   86.8863    7.1642 C.ar    1  UNL1        0.0327
     17 C          60.3918   85.7597    7.8377 C.ar    1  UNL1        0.0389
     18 C          61.0407   85.9774    9.1725 C.ar    1  UNL1        0.1358
     19 O          61.7668   84.8508    9.8461 O.3     1  UNL1       -0.4828
     20 C          63.8150   91.2874   14.0144 C.ar    1  UNL1        0.0516
     21 C          63.8464   91.1896   15.5108 C.ar    1  UNL1        0.0147
     22 C          65.0249   91.7195   16.2725 C.ar    1  UNL1        0.0013
     23 C          66.1721   92.3473   15.5377 C.ar    1  UNL1        0.0016
     24 C          66.1407   92.4451   14.0412 C.ar    1  UNL1        0.0204
     25 C          67.2879   93.0729   13.3064 C.ar    1  UNL1        0.0989
     26 N          67.2565   93.1707   11.8100 N.ar    1  UNL1       -0.2423
     27 C          66.0779   92.6408   11.0483 C.ar    1  UNL1        0.0989
     28 C          64.9307   92.0130   11.7830 C.ar    1  UNL1        0.0219
     29 C          64.9621   91.9152   13.2796 C.ar    1  UNL1        0.0166
@<TRIPOS>BOND
     1     7     8    1
     2     8     9    1
     3     8    10    1
     4    10    11    1
     5    11     1    1
     6     1     2   am
     7     2     3    2
     8     2     4   am
     9     4    20    1
    10    20    21   ar
    11    21    22   ar
    12    22    23   ar
    13    23    24   ar
    14    24    25   ar
    15    25    26   ar
    16    26    27   ar
    17    27    28   ar
    18    28    29   ar
    19    11    12    1
    20    12    13   ar
    21    13    14   ar
    22    14    15    1
    23    14    16   ar
    24    16    17   ar
    25    17    18   ar
    26    18    19    1
    27    19     8    1
    28    29    20   ar
    29    18    12   ar
    30    29    24   ar
    31     1     5    1
    32     4     6    1
@<TRIPOS>MOLECULE
*****
 29 32 0 0 0
SMALL
GASTEIGER

@<TRIPOS>ATOM
      1 N          61.9485   88.8016   12.1324 N.am    1  UNL1       -0.2863
      2 C          62.9958   89.8321   11.8306 C.2     1  UNL1        0.3047
      3 O          63.6876   89.8309   10.4996 O.2     1  UNL1       -0.2525
      4 N          63.3515   90.8638   12.8597 N.am    1  UNL1       -0.2683
      5 H          61.4945   88.8024   13.0060 H       1  UNL1        0.1512
      6 H          62.8975   90.8646   13.7333 H       1  UNL1        0.1564
      7 C          59.7235   86.4782    7.7103 C.3     1  UNL1        0.0437
      8 C          60.3413   87.1007    8.9271 C.3     1  UNL1        0.1352
      9 C          59.5863   88.2788    8.3866 C.3     1  UNL1        0.0437
     10 C          60.6969   88.1324    9.9562 C.3     1  UNL1        0.0642
     11 C          61.5929   87.7699   11.1033 C.3     1  UNL1        0.1020
     12 C          62.1333   86.3755   11.2212 C.ar    1  UNL1        0.0319
     13 C          63.0293   86.0130   12.3682 C.ar    1  UNL1        0.0300
     14 C          63.5697   84.6187   12.4861 C.ar    1  UNL1        0.1401
     15 F          64.4657   84.2560   13.6331 F       1  UNL1       -0.2042
     16 C          63.2140   83.5870   11.4569 C.ar    1  UNL1        0.0327
     17 C          62.3181   83.9495   10.3099 C.ar    1  UNL1        0.0389
     18 C          61.7777   85.3438   10.1920 C.ar    1  UNL1        0.1358
     19 O          60.8816   85.7065    9.0450 O.3     1  UNL1       -0.4828
     20 C          64.3989   91.8943   12.5578 C.ar    1  UNL1        0.0516
     21 C          64.5089   92.4697   11.1770 C.ar    1  UNL1        0.0147
     22 C          65.5562   93.5002   10.8752 C.ar    1  UNL1        0.0013
     23 C          66.4936   93.9552   11.9542 C.ar    1  UNL1        0.0016
     24 C          66.3836   93.3798   13.3350 C.ar    1  UNL1        0.0204
     25 C          67.3210   93.8349   14.4140 C.ar    1  UNL1        0.0989
     26 N          67.2110   93.2594   15.7949 N.ar    1  UNL1       -0.2423
     27 C          66.1636   92.2289   16.0968 C.ar    1  UNL1        0.0989
     28 C          65.2262   91.7739   15.0177 C.ar    1  UNL1        0.0219
     29 C          65.3362   92.3493   13.6368 C.ar    1  UNL1        0.0166
@<TRIPOS>BOND
     1     7     8    1
     2     8     9    1
     3     8    10    1
     4    10    11    1
     5    11     1    1
     6     1     2   am
     7     2     3    2
     8     2     4   am
     9     4    20    1
    10    20    21   ar
    11    21    22   ar
    12    22    23   ar
    13    23    24   ar
    14    24    25   ar
    15    25    26   ar
    16    26    27   ar
    17    27    28   ar
    18    28    29   ar
    19    11    12    1
    20    12    13   ar
    21    13    14   ar
    22    14    15    1
    23    14    16   ar
    24    16    17   ar
    25    17    18   ar
    26    18    19    1
    27    19     8    1
    28    29    20   ar
    29    18    12   ar
    30    29    24   ar
    31     1     5    1
    32     4     6    1
@<TRIPOS>MOLECULE
*****
 29 32 0 0 0
SMALL
GASTEIGER

@<TRIPOS>ATOM
      1 N          63.6700   84.1996   10.7625 N.am    1  UNL1       -0.2863
      2 C          62.5460   85.1115   10.3689 C.2     1  UNL1        0.3047
      3 O          61.4634   85.4365   11.3552 O.2     1  UNL1       -0.2525
      4 N          62.5044   85.6984    8.9892 N.am    1  UNL1       -0.2683
      5 H          64.3805   83.9863   10.1152 H       1  UNL1        0.1512
      6 H          63.2148   85.4851    8.3419 H       1  UNL1        0.1564
      7 C          64.2822   83.7965   16.1816 C.3     1  UNL1        0.0437
      8 C          64.1103   83.8906   14.6945 C.3     1  UNL1        0.1352
      9 C          64.4855   85.3096   15.0036 C.3     1  UNL1        0.0437
     10 C          64.0687   84.4775   13.3147 C.3     1  UNL1        0.0642
     11 C          63.7116   83.6127   12.1423 C.3     1  UNL1        0.1020
     12 C          63.3961   82.1610   12.3496 C.ar    1  UNL1        0.0319
     13 C          63.0390   81.2962   11.1772 C.ar    1  UNL1        0.0300
     14 C          62.7235   79.8445   11.3846 C.ar    1  UNL1        0.1401
     15 F          62.3664   78.9797   10.2121 F       1  UNL1       -0.2042
     16 C          62.7651   79.2576   12.7644 C.ar    1  UNL1        0.0327
     17 C          63.1222   80.1224   13.9368 C.ar    1  UNL1        0.0389
     18 C          63.4377   81.5741   13.7294 C.ar    1  UNL1        0.1358
     19 O          63.7948   82.4389   14.9019 O.3     1  UNL1       -0.4828
     20 C          61.3802   86.6103    8.5956 C.ar    1  UNL1        0.0516
     21 C          60.3787   86.1671    7.5707 C.ar    1  UNL1        0.0147
     22 C          59.2546   87.0790    7.1772 C.ar    1  UNL1        0.0013
     23 C          59.1321   88.4341    7.8086 C.ar    1  UNL1        0.0016
     24 C          60.1337   88.8774    8.8335 C.ar    1  UNL1        0.0204
     25 C          60.0112   90.2325    9.4648 C.ar    1  UNL1        0.0989
     26 N          61.0127   90.6757   10.4897 N.ar    1  UNL1       -0.2423
     27 C          62.1369   89.7638   10.8833 C.ar    1  UNL1        0.0989
     28 C          62.2594   88.4087   10.2519 C.ar    1  UNL1        0.0219
     29 C          61.2577   87.9655    9.2270 C.ar    1  UNL1        0.0166
@<TRIPOS>BOND
     1     7     8    1
     2     8     9    1
     3     8    10    1
     4    10    11    1
     5    11     1    1
     6     1     2   am
     7     2     3    2
     8     2     4   am
     9     4    20    1
    10    20    21   ar
    11    21    22   ar
    12    22    23   ar
    13    23    24   ar
    14    24    25   ar
    15    25    26   ar
    16    26    27   ar
    17    27    28   ar
    18    28    29   ar
    19    11    12    1
    20    12    13   ar
    21    13    14   ar
    22    14    15    1
    23    14    16   ar
    24    16    17   ar
    25    17    18   ar
    26    18    19    1
    27    19     8    1
    28    29    20   ar
    29    18    12   ar
    30    29    24   ar
    31     1     5    1
    32     4     6    1
@<TRIPOS>MOLECULE
*****
 29 32 0 0 0
SMALL
GASTEIGER

@<TRIPOS>ATOM
      1 N          63.8979   87.6107   13.8580 N.am    1  UNL1       -0.2863
      2 C          63.3388   86.2703   13.4834 C.2     1  UNL1        0.3047
      3 O          62.5664   86.1097   12.2075 O.2     1  UNL1       -0.2525
      4 N          63.5520   85.0902   14.3845 N.am    1  UNL1       -0.2683
      5 H          64.4048   87.7161   14.6954 H       1  UNL1        0.1512
      6 H          64.0589   85.1956   15.2219 H       1  UNL1        0.1564
      7 C          61.9777   90.7097    9.7820 C.3     1  UNL1        0.0437
      8 C          62.5141   89.8726   10.9052 C.3     1  UNL1        0.1352
      9 C          61.5835   88.8851   10.2659 C.3     1  UNL1        0.0437
     10 C          62.7273   88.6926   11.8064 C.3     1  UNL1        0.0642
     11 C          63.6847   88.7908   12.9568 C.3     1  UNL1        0.1020
     12 C          64.4291   90.0690   13.2061 C.ar    1  UNL1        0.0319
     13 C          65.3866   90.1672   14.3566 C.ar    1  UNL1        0.0300
     14 C          66.1309   91.4454   14.6058 C.ar    1  UNL1        0.1401
     15 F          67.0885   91.5436   15.7563 F       1  UNL1       -0.2042
     16 C          65.9178   92.6254   13.7046 C.ar    1  UNL1        0.0327
     17 C          64.9603   92.5272   12.5542 C.ar    1  UNL1        0.0389
     18 C          64.2160   91.2490   12.3050 C.ar    1  UNL1        0.1358
     19 O          63.2584   91.1508   11.1545 O.3     1  UNL1       -0.4828
     20 C          62.9928   83.7497   14.0099 C.ar    1  UNL1        0.0516
     21 C          62.0496   83.0443   14.9387 C.ar    1  UNL1        0.0147
     22 C          61.4904   81.7038   14.5639 C.ar    1  UNL1        0.0013
     23 C          61.8745   81.0687   13.2604 C.ar    1  UNL1        0.0016
     24 C          62.8177   81.7741   12.3316 C.ar    1  UNL1        0.0204
     25 C          63.2018   81.1391   11.0281 C.ar    1  UNL1        0.0989
     26 N          64.1450   81.8445   10.0993 N.ar    1  UNL1       -0.2423
     27 C          64.7042   83.1850   10.4740 C.ar    1  UNL1        0.0989
     28 C          64.3201   83.8201   11.7775 C.ar    1  UNL1        0.0219
     29 C          63.3768   83.1146   12.7063 C.ar    1  UNL1        0.0166
@<TRIPOS>BOND
     1     7     8    1
     2     8     9    1
     3     8    10    1
     4    10    11    1
     5    11     1    1
     6     1     2   am
     7     2     3    2
     8     2     4   am
     9     4    20    1
    10    20    21   ar
    11    21    22   ar
    12    22    23   ar
    13    23    24   ar
    14    24    25   ar
    15    25    26   ar
    16    26    27   ar
    17    27    28   ar
    18    28    29   ar
    19    11    12    1
    20    12    13   ar
    21    13    14   ar
    22    14    15    1
    23    14    16   ar
    24    16    17   ar
    25    17    18   ar
    26    18    19    1
    27    19     8    1
    28    29    20   ar
    29    18    12   ar
    30    29    24   ar
    31     1     5    1
    32     4     6    1
@<TRIPOS>MOLECULE
*****
 29 32 0 0 0
SMALL
GASTEIGER

@<TRIPOS>ATOM
      1 N          62.6762   85.9704    9.1830 N.am    1  UNL1       -0.2863
      2 C          62.5253   85.0440   10.3530 C.2     1  UNL1        0.3047
      3 O          61.4465   85.2857   11.3669 O.2     1  UNL1       -0.2525
      4 N          63.4532   83.8759   10.5093 N.am    1  UNL1       -0.2683
      5 H          63.3842   85.8117    8.5176 H       1  UNL1        0.1512
      6 H          64.1613   83.7172    9.8439 H       1  UNL1        0.1564
      7 C          58.6999   89.1756    7.2287 C.3     1  UNL1        0.0437
      8 C          59.7939   88.3081    7.7767 C.3     1  UNL1        0.1352
      9 C          59.3155   87.4426    6.6488 C.3     1  UNL1        0.0437
     10 C          60.7218   87.1399    7.9329 C.3     1  UNL1        0.0642
     11 C          61.7482   87.1385    9.0267 C.3     1  UNL1        0.1020
     12 C          61.8467   88.3053    9.9644 C.ar    1  UNL1        0.0319
     13 C          62.8731   88.3039   11.0582 C.ar    1  UNL1        0.0300
     14 C          62.9716   89.4706   11.9957 C.ar    1  UNL1        0.1401
     15 F          63.9981   89.4692   13.0896 F       1  UNL1       -0.2042
     16 C          62.0437   90.6387   11.8394 C.ar    1  UNL1        0.0327
     17 C          61.0173   90.6401   10.7456 C.ar    1  UNL1        0.0389
     18 C          60.9188   89.4734    9.8081 C.ar    1  UNL1        0.1358
     19 O          59.8924   89.4748    8.7142 O.3     1  UNL1       -0.4828
     20 C          63.3024   82.9495   11.6794 C.ar    1  UNL1        0.0516
     21 C          62.9305   81.5136   11.4561 C.ar    1  UNL1        0.0147
     22 C          62.7796   80.5873   12.6262 C.ar    1  UNL1        0.0013
     23 C          63.0006   81.0968   14.0196 C.ar    1  UNL1        0.0016
     24 C          63.3725   82.5327   14.2429 C.ar    1  UNL1        0.0204
     25 C          63.5935   83.0423   15.6362 C.ar    1  UNL1        0.0989
     26 N          63.9654   84.4782   15.8595 N.ar    1  UNL1       -0.2423
     27 C          64.1162   85.4046   14.6894 C.ar    1  UNL1        0.0989
     28 C          63.8952   84.8950   13.2960 C.ar    1  UNL1        0.0219
     29 C          63.5234   83.4590   13.0728 C.ar    1  UNL1        0.0166
@<TRIPOS>BOND
     1     7     8    1
     2     8     9    1
     3     8    10    1
     4    10    11    1
     5    11     1    1
     6     1     2   am
     7     2     3    2
     8     2     4   am
     9     4    20    1
    10    20    21   ar
    11    21    22   ar
    12    22    23   ar
    13    23    24   ar
    14    24    25   ar
    15    25    26   ar
    16    26    27   ar
    17    27    28   ar
    18    28    29   ar
    19    11    12    1
    20    12    13   ar
    21    13    14   ar
    22    14    15    1
    23    14    16   ar
    24    16    17   ar
    25    17    18   ar
    26    18    19    1
    27    19     8    1
    28    29    20   ar
    29    18    12   ar
    30    29    24   ar
    31     1     5    1
    32     4     6    1
@<TRIPOS>MOLECULE
*****
 29 32 0 0 0
SMALL
GASTEIGER

@<TRIPOS>ATOM
      1 N          61.2707   88.7435   12.0577 N.am    1  UNL1       -0.2863
      2 C          62.5594   89.3986   12.4573 C.2     1  UNL1        0.3047
      3 O          63.8503   88.9571   11.8336 O.2     1  UNL1       -0.2525
      4 N          62.5575   90.4954   13.4806 N.am    1  UNL1       -0.2683
      5 H          60.4235   89.0333   12.4670 H       1  UNL1        0.1512
      6 H          61.7103   90.7852   13.8900 H       1  UNL1        0.1564
      7 C          60.2399   85.9836    7.4506 C.3     1  UNL1        0.0437
      8 C          60.5318   86.7275    8.7200 C.3     1  UNL1        0.1352
      9 C          59.6857   87.7434    8.0115 C.3     1  UNL1        0.0437
     10 C          60.5298   87.8242    9.7433 C.3     1  UNL1        0.0642
     11 C          61.2726   87.6468   11.0343 C.3     1  UNL1        0.1020
     12 C          62.0174   86.3725   11.3021 C.ar    1  UNL1        0.0319
     13 C          62.7602   86.1950   12.5930 C.ar    1  UNL1        0.0300
     14 C          63.5050   84.9208   12.8607 C.ar    1  UNL1        0.1401
     15 F          64.2478   84.7432   14.1518 F       1  UNL1       -0.2042
     16 C          63.5069   83.8241   11.8374 C.ar    1  UNL1        0.0327
     17 C          62.7641   84.0016   10.5464 C.ar    1  UNL1        0.0389
     18 C          62.0194   85.2758   10.2787 C.ar    1  UNL1        0.1358
     19 O          61.2765   85.4533    8.9877 O.3     1  UNL1       -0.4828
     20 C          63.8463   91.1506   13.8803 C.ar    1  UNL1        0.0516
     21 C          64.3081   91.0896   15.3061 C.ar    1  UNL1        0.0147
     22 C          65.5969   91.7448   15.7057 C.ar    1  UNL1        0.0013
     23 C          66.4239   92.4609   14.6795 C.ar    1  UNL1        0.0016
     24 C          65.9622   92.5218   13.2536 C.ar    1  UNL1        0.0204
     25 C          66.7893   93.2379   12.2274 C.ar    1  UNL1        0.0989
     26 N          66.3275   93.2988   10.8015 N.ar    1  UNL1       -0.2423
     27 C          65.0387   92.6436   10.4019 C.ar    1  UNL1        0.0989
     28 C          64.2116   91.9275   11.4281 C.ar    1  UNL1        0.0219
     29 C          64.6734   91.8666   12.8540 C.ar    1  UNL1        0.0166
@<TRIPOS>BOND
     1     7     8    1
     2     8     9    1
     3     8    10    1
     4    10    11    1
     5    11     1    1
     6     1     2   am
     7     2     3    2
     8     2     4   am
     9     4    20    1
    10    20    21   ar
    11    21    22   ar
    12    22    23   ar
    13    23    24   ar
    14    24    25   ar
    15    25    26   ar
    16    26    27   ar
    17    27    28   ar
    18    28    29   ar
    19    11    12    1
    20    12    13   ar
    21    13    14   ar
    22    14    15    1
    23    14    16   ar
    24    16    17   ar
    25    17    18   ar
    26    18    19    1
    27    19     8    1
    28    29    20   ar
    29    18    12   ar
    30    29    24   ar
    31     1     5    1
    32     4     6    1
@<TRIPOS>MOLECULE
*****
 29 32 0 0 0
SMALL
GASTEIGER

@<TRIPOS>ATOM
      1 N          62.7503   87.3905   12.3040 N.am    1  UNL1       -0.2863
      2 C          63.6015   88.4002   13.0154 C.2     1  UNL1        0.3047
      3 O          64.5949   87.9511   14.0458 O.2     1  UNL1       -0.2525
      4 N          63.4592   89.8590   12.6964 N.am    1  UNL1       -0.2683
      5 H          62.0984   87.6852   11.6278 H       1  UNL1        0.1512
      6 H          62.8073   90.1537   12.0202 H       1  UNL1        0.1564
      7 C          63.1018   82.7459   15.1689 C.3     1  UNL1        0.0437
      8 C          63.0072   84.0110   14.3687 C.3     1  UNL1        0.1352
      9 C          62.8702   84.5685   15.7545 C.3     1  UNL1        0.0437
     10 C          62.8650   85.4698   14.0498 C.3     1  UNL1        0.0642
     11 C          62.8926   85.9317   12.6230 C.3     1  UNL1        0.1020
     12 C          63.0624   84.9348   11.5150 C.ar    1  UNL1        0.0319
     13 C          63.0900   85.3968   10.0882 C.ar    1  UNL1        0.0300
     14 C          63.2598   84.3999    8.9804 C.ar    1  UNL1        0.1401
     15 F          63.2874   84.8618    7.5535 F       1  UNL1       -0.2042
     16 C          63.4020   82.9411    9.2993 C.ar    1  UNL1        0.0327
     17 C          63.3744   82.4792   10.7261 C.ar    1  UNL1        0.0389
     18 C          63.2046   83.4761   11.8340 C.ar    1  UNL1        0.1358
     19 O          63.1770   83.0142   13.2609 O.3     1  UNL1       -0.4828
     20 C          64.3104   90.8687   13.4078 C.ar    1  UNL1        0.0516
     21 C          64.4847   90.7879   14.8955 C.ar    1  UNL1        0.0147
     22 C          65.3358   91.7976   15.6068 C.ar    1  UNL1        0.0013
     23 C          66.0127   92.8881   14.8305 C.ar    1  UNL1        0.0016
     24 C          65.8385   92.9689   13.3429 C.ar    1  UNL1        0.0204
     25 C          66.5154   94.0594   12.5666 C.ar    1  UNL1        0.0989
     26 N          66.3411   94.1402   11.0790 N.ar    1  UNL1       -0.2423
     27 C          65.4899   93.1305   10.3676 C.ar    1  UNL1        0.0989
     28 C          64.8130   92.0400   11.1439 C.ar    1  UNL1        0.0219
     29 C          64.9873   91.9592   12.6316 C.ar    1  UNL1        0.0166
@<TRIPOS>BOND
     1     7     8    1
     2     8     9    1
     3     8    10    1
     4    10    11    1
     5    11     1    1
     6     1     2   am
     7     2     3    2
     8     2     4   am
     9     4    20    1
    10    20    21   ar
    11    21    22   ar
    12    22    23   ar
    13    23    24   ar
    14    24    25   ar
    15    25    26   ar
    16    26    27   ar
    17    27    28   ar
    18    28    29   ar
    19    11    12    1
    20    12    13   ar
    21    13    14   ar
    22    14    15    1
    23    14    16   ar
    24    16    17   ar
    25    17    18   ar
    26    18    19    1
    27    19     8    1
    28    29    20   ar
    29    18    12   ar
    30    29    24   ar
    31     1     5    1
    32     4     6    1
@<TRIPOS>MOLECULE
*****
 29 32 0 0 0
SMALL
GASTEIGER

@<TRIPOS>ATOM
      1 N          62.8335   85.9879    9.5577 N.am    1  UNL1       -0.2863
      2 C          62.5380   84.9904   10.6382 C.2     1  UNL1        0.3047
      3 O          61.2980   85.1314   11.4705 O.2     1  UNL1       -0.2525
      4 N          63.4825   83.8518   10.8866 N.am    1  UNL1       -0.2683
      5 H          63.6473   85.8953    9.0115 H       1  UNL1        0.1512
      6 H          64.2963   83.7593   10.3404 H       1  UNL1        0.1564
      7 C          58.8260   88.9778    7.3432 C.3     1  UNL1        0.0437
      8 C          59.9283   88.1702    7.9616 C.3     1  UNL1        0.1352
      9 C          59.4738   87.2174    6.8960 C.3     1  UNL1        0.0437
     10 C          60.8728   87.0317    8.2100 C.3     1  UNL1        0.0642
     11 C          61.8889   87.1264    9.3093 C.3     1  UNL1        0.1020
     12 C          61.9607   88.3596   10.1602 C.ar    1  UNL1        0.0319
     13 C          62.9768   88.4543   11.2594 C.ar    1  UNL1        0.0300
     14 C          63.0485   89.6876   12.1103 C.ar    1  UNL1        0.1401
     15 F          64.0647   89.7823   13.2096 F       1  UNL1       -0.2042
     16 C          62.1040   90.8261   11.8619 C.ar    1  UNL1        0.0327
     17 C          61.0878   90.7314   10.7627 C.ar    1  UNL1        0.0389
     18 C          61.0162   89.4982    9.9118 C.ar    1  UNL1        0.1358
     19 O          59.9999   89.4034    8.8125 O.3     1  UNL1       -0.4828
     20 C          63.1870   82.8543   11.9672 C.ar    1  UNL1        0.0516
     21 C          63.0826   83.3036   13.3945 C.ar    1  UNL1        0.0147
     22 C          62.7871   82.3061   14.4751 C.ar    1  UNL1        0.0013
     23 C          62.5959   80.8593   14.1283 C.ar    1  UNL1        0.0016
     24 C          62.7003   80.4100   12.7010 C.ar    1  UNL1        0.0204
     25 C          62.5091   78.9632   12.3543 C.ar    1  UNL1        0.0989
     26 N          62.6134   78.5139   10.9270 N.ar    1  UNL1       -0.2423
     27 C          62.9089   79.5115    9.8463 C.ar    1  UNL1        0.0989
     28 C          63.1001   80.9583   10.1931 C.ar    1  UNL1        0.0219
     29 C          62.9958   81.4075   11.6205 C.ar    1  UNL1        0.0166
@<TRIPOS>BOND
     1     7     8    1
     2     8     9    1
     3     8    10    1
     4    10    11    1
     5    11     1    1
     6     1     2   am
     7     2     3    2
     8     2     4   am
     9     4    20    1
    10    20    21   ar
    11    21    22   ar
    12    22    23   ar
    13    23    24   ar
    14    24    25   ar
    15    25    26   ar
    16    26    27   ar
    17    27    28   ar
    18    28    29   ar
    19    11    12    1
    20    12    13   ar
    21    13    14   ar
    22    14    15    1
    23    14    16   ar
    24    16    17   ar
    25    17    18   ar
    26    18    19    1
    27    19     8    1
    28    29    20   ar
    29    18    12   ar
    30    29    24   ar
    31     1     5    1
    32     4     6    1
