@<TRIPOS>MOLECULE
*****
 42 46 0 0 0
SMALL
GASTEIGER

@<TRIPOS>ATOM
      1 C          64.1591   85.8712   15.3686 C.ar    1  UNL1        0.1383
      2 C          63.5073   85.0460   16.4384 C.ar    1  UNL1        0.0369
      3 C          62.7290   85.7155   17.5321 C.ar    1  UNL1        0.0028
      4 C          62.6026   87.2101   17.5559 C.ar    1  UNL1       -0.0041
      5 C          63.2543   88.0351   16.4862 C.ar    1  UNL1       -0.0186
      6 C          64.0326   87.3656   15.3925 C.ar    1  UNL1        0.0326
      7 O          64.9374   85.2017   14.2750 O.3     1  UNL1       -0.4751
      8 C          64.6424   83.7775   13.9082 C.3     1  UNL1        0.2118
      9 C          63.3669   83.4348   13.1970 C.3     1  UNL1        0.0960
     10 C          62.0715   85.5346   10.2006 C.ar    1  UNL1        0.2290
     11 N          62.0812   85.2079   11.6646 N.ar    1  UNL1       -0.2129
     12 C          63.0454   84.0794   11.8813 C.ar    1  UNL1        0.0960
     13 C          63.6316   83.7088   10.5512 C.ar    1  UNL1        0.1387
     14 C          64.6423   82.6284   10.3034 C.3     1  UNL1        0.0738
     15 O          63.0297   84.6081    9.5125 O.2     1  UNL1       -0.4392
     16 C          60.3080   89.0225    9.5119 C.ar    1  UNL1        0.1389
     17 C          59.6015   88.7329    8.2207 C.ar    1  UNL1        0.0369
     18 C          59.7184   87.3772    7.5896 C.ar    1  UNL1        0.0033
     19 C          60.5417   86.3111    8.2495 C.ar    1  UNL1        0.0049
     20 C          61.2482   86.6007    9.5406 C.ar    1  UNL1        0.0566
     21 C          61.1313   87.9565   10.1718 C.ar    1  UNL1        0.0415
     22 C          59.5217   90.5294   11.4768 C.3     1  UNL1        0.2525
     23 O          60.1911   90.3783   10.1430 O.3     1  UNL1       -0.4714
     24 C          63.1278   89.5295   16.5100 C.3     1  UNL1        0.0376
     25 C          63.7212   90.3501   15.4036 C.3     1  UNL1        0.1052
     26 C          63.5960   90.3640   13.9088 C.2     1  UNL1        0.2315
     27 O          62.8255   89.5628   12.9015 O.2     1  UNL1       -0.2745
     28 N          64.5603   91.5107   13.8386 N.am    1  UNL1       -0.2546
     29 C          64.6855   91.4969   15.3333 C.3     1  UNL1        0.1249
     30 C          65.1536   92.3314   12.7321 C.ar    1  UNL1        0.0541
     31 C          66.0004   93.5265   13.0558 C.ar    1  UNL1        0.0146
     32 C          66.5937   94.3472   11.9492 C.ar    1  UNL1       -0.0030
     33 C          66.3404   93.9727   10.5190 C.ar    1  UNL1       -0.0227
     34 C          65.4937   92.7776   10.1953 C.ar    1  UNL1       -0.0030
     35 C          64.9003   91.9570   11.3019 C.ar    1  UNL1        0.0146
     36 C          66.9337   94.7934    9.4124 C.3     1  UNL1        0.0189
     37 C          67.8535   93.6604    9.0654 C.3     1  UNL1        0.0044
     38 C          66.0140   95.9264    9.7595 C.3     1  UNL1        0.0044
     39 C          67.5271   95.6141    8.3059 C.3     1  UNL1        0.0044
     40 C          65.4559   92.2981   16.3406 C.2     1  UNL1        0.0692
     41 O          64.7711   92.8125   17.5721 O.co2   1  UNL1       -0.5475
     42 O          66.9111   92.5848   16.1165 O.co2   1  UNL1       -0.5475
@<TRIPOS>UNITY_ATOM_ATTR
41 1
charge -1
@<TRIPOS>BOND
     1    22    23    1
     2    23    16    1
     3    16    17   ar
     4    17    18   ar
     5    18    19   ar
     6    19    20   ar
     7    20    10    1
     8    10    11   ar
     9    11    12   ar
    10    12     9    1
    11     9     8    1
    12     8     7    1
    13     7     1    1
    14     1     2   ar
    15     2     3   ar
    16     3     4   ar
    17     4     5   ar
    18     5    24    1
    19    25    24    1
    20    25    26    1
    21    26    27    2
    22    26    28   am
    23    28    30    1
    24    30    31   ar
    25    31    32   ar
    26    32    33   ar
    27    33    36    1
    28    36    37    1
    29    36    38    1
    30    36    39    1
    31    33    34   ar
    32    34    35   ar
    33    28    29    1
    34    29    40    1
    35    40    41   ar
    36    40    42   ar
    37     5     6   ar
    38    12    13   ar
    39    13    14    1
    40    13    15   ar
    41    20    21   ar
    42    21    16   ar
    43    15    10   ar
    44     6     1   ar
    45    29    25    1
    46    35    30   ar
@<TRIPOS>MOLECULE
*****
 42 46 0 0 0
SMALL
GASTEIGER

@<TRIPOS>ATOM
      1 C          63.9885   86.2497   15.4671 C.ar    1  UNL1        0.1383
      2 C          63.2147   85.5041   16.5137 C.ar    1  UNL1        0.0369
      3 C          62.5419   86.2538   17.6252 C.ar    1  UNL1        0.0028
      4 C          62.6430   87.7490   17.6900 C.ar    1  UNL1       -0.0041
      5 C          63.4167   88.4945   16.6434 C.ar    1  UNL1       -0.0186
      6 C          64.0895   87.7448   15.5320 C.ar    1  UNL1        0.0326
      7 O          64.6613   85.5000   14.3557 O.3     1  UNL1       -0.4751
      8 C          64.5950   84.0020   14.3137 C.3     1  UNL1        0.2118
      9 C          64.5761   83.2888   12.9943 C.3     1  UNL1        0.0960
     10 C          62.3821   85.3032   10.5056 C.ar    1  UNL1        0.2290
     11 N          62.9303   85.0784   11.8836 N.ar    1  UNL1       -0.2129
     12 C          63.8205   83.8720   11.8372 C.ar    1  UNL1        0.0960
     13 C          63.8225   83.3513   10.4304 C.ar    1  UNL1        0.1387
     14 C          64.5804   82.1559    9.9338 C.3     1  UNL1        0.0738
     15 O          62.9335   84.2359    9.6075 O.2     1  UNL1       -0.4392
     16 C          59.9412   88.4248   10.7251 C.ar    1  UNL1        0.1389
     17 C          59.5759   88.6011    9.2810 C.ar    1  UNL1        0.0369
     18 C          60.1460   87.6781    8.2451 C.ar    1  UNL1        0.0033
     19 C          61.0813   86.5789    8.6533 C.ar    1  UNL1        0.0049
     20 C          61.4466   86.4026   10.0973 C.ar    1  UNL1        0.0566
     21 C          60.8766   87.3255   11.1333 C.ar    1  UNL1        0.0415
     22 C          59.1840   90.8027   11.4478 C.3     1  UNL1        0.2525
     23 O          59.3711   89.3478   11.7610 O.3     1  UNL1       -0.4714
     24 C          63.5178   89.9897   16.7083 C.3     1  UNL1        0.0376
     25 C          64.0674   90.7556   15.5416 C.3     1  UNL1        0.1052
     26 C          65.1709   91.7541   15.3532 C.2     1  UNL1        0.2315
     27 O          66.1818   92.4003   16.2536 O.2     1  UNL1       -0.2745
     28 N          64.8448   91.8387   13.8916 N.am    1  UNL1       -0.2546
     29 C          63.7414   90.8402   14.0799 C.3     1  UNL1        0.1249
     30 C          65.3945   92.6046   12.7248 C.ar    1  UNL1        0.0541
     31 C          66.0940   93.9125   12.9487 C.ar    1  UNL1        0.0146
     32 C          66.6436   94.6784   11.7819 C.ar    1  UNL1       -0.0030
     33 C          66.4938   94.1364   10.3913 C.ar    1  UNL1       -0.0227
     34 C          65.7944   92.8285   10.1675 C.ar    1  UNL1       -0.0030
     35 C          65.2447   92.0626   11.3343 C.ar    1  UNL1        0.0146
     36 C          67.0435   94.9023    9.2246 C.3     1  UNL1        0.0189
     37 C          68.0424   93.8106    8.9785 C.3     1  UNL1        0.0044
     38 C          66.0447   95.9940    9.4706 C.3     1  UNL1        0.0044
     39 C          67.5932   95.6681    8.0578 C.3     1  UNL1        0.0044
     40 C          62.7305   90.1940   13.1795 C.2     1  UNL1        0.0692
     41 O          62.9764   90.1282   11.7012 O.co2   1  UNL1       -0.5475
     42 O          61.4738   89.6137   13.7574 O.co2   1  UNL1       -0.5475
@<TRIPOS>UNITY_ATOM_ATTR
41 1
charge -1
@<TRIPOS>BOND
     1    22    23    1
     2    23    16    1
     3    16    17   ar
     4    17    18   ar
     5    18    19   ar
     6    19    20   ar
     7    20    10    1
     8    10    11   ar
     9    11    12   ar
    10    12     9    1
    11     9     8    1
    12     8     7    1
    13     7     1    1
    14     1     2   ar
    15     2     3   ar
    16     3     4   ar
    17     4     5   ar
    18     5    24    1
    19    25    24    1
    20    25    26    1
    21    26    27    2
    22    26    28   am
    23    28    30    1
    24    30    31   ar
    25    31    32   ar
    26    32    33   ar
    27    33    36    1
    28    36    37    1
    29    36    38    1
    30    36    39    1
    31    33    34   ar
    32    34    35   ar
    33    28    29    1
    34    29    40    1
    35    40    41   ar
    36    40    42   ar
    37     5     6   ar
    38    12    13   ar
    39    13    14    1
    40    13    15   ar
    41    20    21   ar
    42    21    16   ar
    43    15    10   ar
    44     6     1   ar
    45    29    25    1
    46    35    30   ar
