@<TRIPOS>MOLECULE
*****
 30 34 0 0 0
SMALL
GASTEIGER

@<TRIPOS>ATOM
      1 O          63.3941   87.2656   12.9895 O.2     1  UNL1       -0.2699
      2 C          62.7559   86.4810   11.8817 C.2     1  UNL1        0.2505
      3 N          61.7037   87.1166   11.0221 N.am    1  UNL1       -0.2773
      4 C          60.9806   86.4604    9.8835 C.3     1  UNL1        0.0937
      5 C          60.0199   87.4582    9.3079 C.3     1  UNL1        0.0232
      6 C          60.1492   88.7312   10.0908 C.3     1  UNL1        0.0219
      7 C          61.1899   88.5200   11.1503 C.3     1  UNL1        0.0800
      8 C          63.1700   85.0608   11.6335 C.ar    1  UNL1        0.0729
      9 C          63.3298   84.5608   10.2284 C.ar    1  UNL1        0.0061
     10 C          63.7439   83.1406    9.9802 C.ar    1  UNL1        0.0002
     11 C          63.9982   82.2204   11.1371 C.ar    1  UNL1        0.0016
     12 C          63.8384   82.7204   12.5423 C.ar    1  UNL1        0.0211
     13 C          63.4243   84.1406   12.7905 C.ar    1  UNL1        0.1072
     14 N          63.2645   84.6406   14.1956 N.ar    1  UNL1       -0.1477
     15 N          64.3459   85.2351   15.0483 N.ar    1  UNL1       -0.1447
     16 C          63.7450   85.5958   16.3745 C.ar    1  UNL1        0.1446
     17 C          62.2921   85.2241   16.3414 C.ar    1  UNL1        0.1446
     18 N          61.9952   84.6338   14.9949 N.ar    1  UNL1       -0.1447
     19 C          61.6381   89.5342   12.1604 C.3     1  UNL1        0.0462
     20 C          62.7765   90.4576   11.8419 C.ar    1  UNL1       -0.0190
     21 C          62.9554   90.9734   10.4447 C.ar    1  UNL1       -0.0041
     22 C          64.0938   91.8967   10.1262 C.ar    1  UNL1        0.0013
     23 C          65.0532   92.3044   11.2049 C.ar    1  UNL1        0.0209
     24 C          64.8742   91.7886   12.6020 C.ar    1  UNL1        0.1026
     25 C          63.7358   90.8652   12.9205 C.ar    1  UNL1        0.0167
     26 N          65.8337   92.1963   13.6806 N.ar    1  UNL1       -0.1478
     27 N          67.2881   92.5120   13.4935 N.ar    1  UNL1       -0.1447
     28 C          67.8604   92.8706   14.8328 C.ar    1  UNL1        0.1446
     29 C          66.7598   92.7765   15.8476 C.ar    1  UNL1        0.1446
     30 N          65.5072   92.3598   15.1355 N.ar    1  UNL1       -0.1447
@<TRIPOS>BOND
     1     1     2    2
     2     2     8    1
     3     8     9   ar
     4     9    10   ar
     5    10    11   ar
     6    11    12   ar
     7    12    13   ar
     8    13    14    1
     9    14    15   ar
    10    15    16   ar
    11    16    17   ar
    12    17    18   ar
    13     2     3   am
    14     3     4    1
    15     4     5    1
    16     5     6    1
    17     6     7    1
    18     7    19    1
    19    19    20    1
    20    20    21   ar
    21    21    22   ar
    22    22    23   ar
    23    23    24   ar
    24    24    26    1
    25    26    27   ar
    26    27    28   ar
    27    28    29   ar
    28    29    30   ar
    29    24    25   ar
    30    13     8   ar
    31    18    14   ar
    32     7     3    1
    33    25    20   ar
    34    30    26   ar
@<TRIPOS>MOLECULE
*****
 30 34 0 0 0
SMALL
GASTEIGER

@<TRIPOS>ATOM
      1 O          61.4922   85.6318   12.7970 O.2     1  UNL1       -0.2699
      2 C          62.2594   84.6780   11.9299 C.2     1  UNL1        0.2505
      3 N          62.5663   85.0391   10.5068 N.am    1  UNL1       -0.2773
      4 C          63.3200   84.1917    9.5251 C.3     1  UNL1        0.0937
      5 C          63.3929   84.9399    8.2270 C.3     1  UNL1        0.0232
      6 C          62.6842   86.2497    8.4065 C.3     1  UNL1        0.0219
      7 C          62.1734   86.3110    9.8155 C.3     1  UNL1        0.0800
      8 C          62.7196   83.3631   12.4860 C.ar    1  UNL1        0.0729
      9 C          62.4972   82.1004   11.7076 C.ar    1  UNL1        0.0061
     10 C          62.9574   80.7855   12.2637 C.ar    1  UNL1        0.0002
     11 C          63.6401   80.7333   13.5983 C.ar    1  UNL1        0.0016
     12 C          63.8626   81.9961   14.3768 C.ar    1  UNL1        0.0211
     13 C          63.4023   83.3110   13.8207 C.ar    1  UNL1        0.1072
     14 N          63.6248   84.5737   14.5992 N.ar    1  UNL1       -0.1477
     15 N          64.6595   85.6194   14.3062 N.ar    1  UNL1       -0.1447
     16 C          64.5257   86.7044   15.3332 C.ar    1  UNL1        0.1446
     17 C          63.4083   86.3292   16.2610 C.ar    1  UNL1        0.1446
     18 N          62.8515   85.0123   15.8073 N.ar    1  UNL1       -0.1447
     19 C          61.4045   87.4451   10.4260 C.3     1  UNL1        0.0462
     20 C          62.1127   88.7105   10.8098 C.ar    1  UNL1       -0.0190
     21 C          62.5045   89.7007    9.7534 C.ar    1  UNL1       -0.0041
     22 C          63.2127   90.9660   10.1373 C.ar    1  UNL1        0.0013
     23 C          63.5290   91.2412   11.5775 C.ar    1  UNL1        0.0209
     24 C          63.1372   90.2510   12.6339 C.ar    1  UNL1        0.1026
     25 C          62.4290   88.9856   12.2500 C.ar    1  UNL1        0.0167
     26 N          63.4535   90.5262   14.0741 N.ar    1  UNL1       -0.1478
     27 N          62.8417   89.8380   15.2582 N.ar    1  UNL1       -0.1447
     28 C          63.4472   90.4244   16.4989 C.ar    1  UNL1        0.1446
     29 C          64.4333   91.4749   16.0817 C.ar    1  UNL1        0.1446
     30 N          64.4372   91.5378   14.5830 N.ar    1  UNL1       -0.1447
@<TRIPOS>BOND
     1     1     2    2
     2     2     8    1
     3     8     9   ar
     4     9    10   ar
     5    10    11   ar
     6    11    12   ar
     7    12    13   ar
     8    13    14    1
     9    14    15   ar
    10    15    16   ar
    11    16    17   ar
    12    17    18   ar
    13     2     3   am
    14     3     4    1
    15     4     5    1
    16     5     6    1
    17     6     7    1
    18     7    19    1
    19    19    20    1
    20    20    21   ar
    21    21    22   ar
    22    22    23   ar
    23    23    24   ar
    24    24    26    1
    25    26    27   ar
    26    27    28   ar
    27    28    29   ar
    28    29    30   ar
    29    24    25   ar
    30    13     8   ar
    31    18    14   ar
    32     7     3    1
    33    25    20   ar
    34    30    26   ar
@<TRIPOS>MOLECULE
*****
 30 34 0 0 0
SMALL
GASTEIGER

@<TRIPOS>ATOM
      1 O          63.6158   87.4127   13.6500 O.2     1  UNL1       -0.2699
      2 C          63.0746   87.0649   12.2949 C.2     1  UNL1        0.2505
      3 N          62.4856   88.1355   11.4251 N.am    1  UNL1       -0.2773
      4 C          61.9090   87.9398   10.0543 C.3     1  UNL1        0.0937
      5 C          61.4368   89.2732    9.5553 C.3     1  UNL1        0.0232
      6 C          61.7216   90.2931   10.6177 C.3     1  UNL1        0.0219
      7 C          62.3698   89.5900   11.7733 C.3     1  UNL1        0.0800
      8 C          63.1224   85.6463   11.8098 C.ar    1  UNL1        0.0729
      9 C          63.1407   85.3572   10.3381 C.ar    1  UNL1        0.0061
     10 C          63.1885   83.9386    9.8529 C.ar    1  UNL1        0.0002
     11 C          63.2181   82.8091   10.8395 C.ar    1  UNL1        0.0016
     12 C          63.1999   83.0982   12.3113 C.ar    1  UNL1        0.0211
     13 C          63.1521   84.5168   12.7965 C.ar    1  UNL1        0.1072
     14 N          63.1338   84.8059   14.2682 N.ar    1  UNL1       -0.1477
     15 N          61.9171   84.8418   15.1447 N.ar    1  UNL1       -0.1447
     16 C          62.3604   85.1680   16.5401 C.ar    1  UNL1        0.1446
     17 C          63.8512   85.3336   16.5259 C.ar    1  UNL1        0.1446
     18 N          64.3292   85.1099   15.1219 N.ar    1  UNL1       -0.1447
     19 C          62.8227   90.2291   13.0525 C.3     1  UNL1        0.0462
     20 C          64.1737   90.8761   13.1303 C.ar    1  UNL1       -0.0190
     21 C          65.0830   90.5773   14.2854 C.ar    1  UNL1       -0.0041
     22 C          66.4340   91.2244   14.3632 C.ar    1  UNL1        0.0013
     23 C          66.8757   92.1702   13.2860 C.ar    1  UNL1        0.0209
     24 C          65.9665   92.4690   12.1311 C.ar    1  UNL1        0.1026
     25 C          64.6155   91.8219   12.0532 C.ar    1  UNL1        0.0167
     26 N          66.4083   93.4148   11.0539 N.ar    1  UNL1       -0.1478
     27 N          65.7637   94.7256   10.7128 N.ar    1  UNL1       -0.1447
     28 C          66.5293   95.3368    9.5769 C.ar    1  UNL1        0.1446
     29 C          67.6470   94.4038    9.2160 C.ar    1  UNL1        0.1446
     30 N          67.5722   93.2159   10.1289 N.ar    1  UNL1       -0.1447
@<TRIPOS>BOND
     1     1     2    2
     2     2     8    1
     3     8     9   ar
     4     9    10   ar
     5    10    11   ar
     6    11    12   ar
     7    12    13   ar
     8    13    14    1
     9    14    15   ar
    10    15    16   ar
    11    16    17   ar
    12    17    18   ar
    13     2     3   am
    14     3     4    1
    15     4     5    1
    16     5     6    1
    17     6     7    1
    18     7    19    1
    19    19    20    1
    20    20    21   ar
    21    21    22   ar
    22    22    23   ar
    23    23    24   ar
    24    24    26    1
    25    26    27   ar
    26    27    28   ar
    27    28    29   ar
    28    29    30   ar
    29    24    25   ar
    30    13     8   ar
    31    18    14   ar
    32     7     3    1
    33    25    20   ar
    34    30    26   ar
@<TRIPOS>MOLECULE
*****
 30 34 0 0 0
SMALL
GASTEIGER

@<TRIPOS>ATOM
      1 O          63.7524   88.4453   12.2980 O.2     1  UNL1       -0.2699
      2 C          63.5900   87.5296   13.4750 C.2     1  UNL1        0.2505
      3 N          63.4387   88.1002   14.8539 N.am    1  UNL1       -0.2773
      4 C          63.2687   87.3136   16.1198 C.3     1  UNL1        0.0937
      5 C          63.1557   88.2848   17.2573 C.3     1  UNL1        0.0232
      6 C          63.2558   89.6716   16.6945 C.3     1  UNL1        0.0219
      7 C          63.4307   89.5575   15.2091 C.3     1  UNL1        0.0800
      8 C          63.5790   86.0433   13.2729 C.ar    1  UNL1        0.0729
      9 C          64.3807   85.1572   14.1795 C.ar    1  UNL1        0.0061
     10 C          64.3697   83.6709   13.9774 C.ar    1  UNL1        0.0002
     11 C          63.5569   83.0708   12.8688 C.ar    1  UNL1        0.0016
     12 C          62.7551   83.9569   11.9621 C.ar    1  UNL1        0.0211
     13 C          62.7661   85.4432   12.1642 C.ar    1  UNL1        0.1072
     14 N          61.9644   86.3293   11.2576 N.ar    1  UNL1       -0.1477
     15 N          62.2368   86.5814    9.8042 N.ar    1  UNL1       -0.1447
     16 C          61.1902   87.5268    9.2936 C.ar    1  UNL1        0.1446
     17 C          60.2709   87.8591   10.4314 C.ar    1  UNL1        0.1446
     18 N          60.7494   87.1189   11.6452 N.ar    1  UNL1       -0.1447
     19 C          63.5727   90.7001   14.2477 C.3     1  UNL1        0.0462
     20 C          64.9264   91.2843   13.9718 C.ar    1  UNL1       -0.0190
     21 C          66.0522   91.0569   14.9367 C.ar    1  UNL1       -0.0041
     22 C          67.4059   91.6411   14.6608 C.ar    1  UNL1        0.0013
     23 C          67.6339   92.4526   13.4201 C.ar    1  UNL1        0.0209
     24 C          66.5081   92.6799   12.4552 C.ar    1  UNL1        0.1026
     25 C          65.1544   92.0958   12.7311 C.ar    1  UNL1        0.0167
     26 N          66.7362   93.4915   11.2145 N.ar    1  UNL1       -0.1478
     27 N          65.9835   94.7271   10.8185 N.ar    1  UNL1       -0.1447
     28 C          66.5390   95.2091    9.5112 C.ar    1  UNL1        0.1446
     29 C          67.6350   94.2715    9.0993 C.ar    1  UNL1        0.1446
     30 N          67.7569   93.2100   10.1520 N.ar    1  UNL1       -0.1447
@<TRIPOS>BOND
     1     1     2    2
     2     2     8    1
     3     8     9   ar
     4     9    10   ar
     5    10    11   ar
     6    11    12   ar
     7    12    13   ar
     8    13    14    1
     9    14    15   ar
    10    15    16   ar
    11    16    17   ar
    12    17    18   ar
    13     2     3   am
    14     3     4    1
    15     4     5    1
    16     5     6    1
    17     6     7    1
    18     7    19    1
    19    19    20    1
    20    20    21   ar
    21    21    22   ar
    22    22    23   ar
    23    23    24   ar
    24    24    26    1
    25    26    27   ar
    26    27    28   ar
    27    28    29   ar
    28    29    30   ar
    29    24    25   ar
    30    13     8   ar
    31    18    14   ar
    32     7     3    1
    33    25    20   ar
    34    30    26   ar
@<TRIPOS>MOLECULE
*****
 30 34 0 0 0
SMALL
GASTEIGER

@<TRIPOS>ATOM
      1 O          64.9934   85.0784   13.0569 O.2     1  UNL1       -0.2699
      2 C          63.9638   84.4025   13.9132 C.2     1  UNL1        0.2505
      3 N          63.4251   85.0979   15.1281 N.am    1  UNL1       -0.2773
      4 C          62.3983   84.5504   16.0747 C.3     1  UNL1        0.0937
      5 C          62.1572   85.5770   17.1415 C.3     1  UNL1        0.0232
      6 C          63.0350   86.7590   16.8542 C.3     1  UNL1        0.0219
      7 C          63.8186   86.4629   15.6099 C.3     1  UNL1        0.0800
      8 C          63.4730   83.0312   13.5545 C.ar    1  UNL1        0.0729
      9 C          63.5606   81.9176   14.5555 C.ar    1  UNL1        0.0061
     10 C          63.0698   80.5463   14.1967 C.ar    1  UNL1        0.0002
     11 C          62.4913   80.2887   12.8370 C.ar    1  UNL1        0.0016
     12 C          62.4036   81.4023   11.8359 C.ar    1  UNL1        0.0211
     13 C          62.8945   82.7736   12.1946 C.ar    1  UNL1        0.1072
     14 N          62.8068   83.8873   11.1936 N.ar    1  UNL1       -0.1477
     15 N          62.0042   85.1457   11.3427 N.ar    1  UNL1       -0.1447
     16 C          62.2077   85.9742   10.1090 C.ar    1  UNL1        0.1446
     17 C          63.1362   85.2278    9.1974 C.ar    1  UNL1        0.1446
     18 N          63.5064   83.9380    9.8677 N.ar    1  UNL1       -0.1447
     19 C          64.8199   87.3721   14.9613 C.3     1  UNL1        0.0462
     20 C          64.3534   88.5452   14.1513 C.ar    1  UNL1       -0.0190
     21 C          64.9344   89.9059   14.3987 C.ar    1  UNL1       -0.0041
     22 C          64.4679   91.0791   13.5887 C.ar    1  UNL1        0.0013
     23 C          63.4206   90.8916   12.5314 C.ar    1  UNL1        0.0209
     24 C          62.8396   89.5309   12.2841 C.ar    1  UNL1        0.1026
     25 C          63.3061   88.3578   13.0941 C.ar    1  UNL1        0.0167
     26 N          61.7922   89.3435   11.2267 N.ar    1  UNL1       -0.1478
     27 N          61.9183   89.7296    9.7828 N.ar    1  UNL1       -0.1447
     28 C          60.6389   89.3618    9.0914 C.ar    1  UNL1        0.1446
     29 C          59.7222   88.7485   10.1080 C.ar    1  UNL1        0.1446
     30 N          60.4350   88.7372   11.4278 N.ar    1  UNL1       -0.1447
@<TRIPOS>BOND
     1     1     2    2
     2     2     8    1
     3     8     9   ar
     4     9    10   ar
     5    10    11   ar
     6    11    12   ar
     7    12    13   ar
     8    13    14    1
     9    14    15   ar
    10    15    16   ar
    11    16    17   ar
    12    17    18   ar
    13     2     3   am
    14     3     4    1
    15     4     5    1
    16     5     6    1
    17     6     7    1
    18     7    19    1
    19    19    20    1
    20    20    21   ar
    21    21    22   ar
    22    22    23   ar
    23    23    24   ar
    24    24    26    1
    25    26    27   ar
    26    27    28   ar
    27    28    29   ar
    28    29    30   ar
    29    24    25   ar
    30    13     8   ar
    31    18    14   ar
    32     7     3    1
    33    25    20   ar
    34    30    26   ar
@<TRIPOS>MOLECULE
*****
 30 34 0 0 0
SMALL
GASTEIGER

@<TRIPOS>ATOM
      1 O          62.6896   90.2300   11.5002 O.2     1  UNL1       -0.2699
      2 C          62.7506   88.7347   11.6025 C.2     1  UNL1        0.2505
      3 N          63.4001   88.0901   12.7911 N.am    1  UNL1       -0.2773
      4 C          63.5355   86.6155   13.0301 C.3     1  UNL1        0.0937
      5 C          64.2473   86.4210   14.3360 C.3     1  UNL1        0.0232
      6 C          64.5518   87.7755   14.9042 C.3     1  UNL1        0.0219
      7 C          64.0282   88.8070   13.9493 C.3     1  UNL1        0.0800
      8 C          62.1622   87.8839   10.5162 C.ar    1  UNL1        0.0729
      9 C          63.0319   86.9213    9.7633 C.ar    1  UNL1        0.0061
     10 C          62.4435   86.0706    8.6770 C.ar    1  UNL1        0.0002
     11 C          60.9854   86.1825    8.3436 C.ar    1  UNL1        0.0016
     12 C          60.1156   87.1452    9.0965 C.ar    1  UNL1        0.0211
     13 C          60.7040   87.9959   10.1828 C.ar    1  UNL1        0.1072
     14 N          59.8342   88.9585   10.9357 N.ar    1  UNL1       -0.1477
     15 N          59.0530   88.6538   12.1794 N.ar    1  UNL1       -0.1447
     16 C          58.3289   89.9018   12.5894 C.ar    1  UNL1        0.1446
     17 C          58.6627   90.9779   11.5991 C.ar    1  UNL1        0.1446
     18 N          59.5931   90.3949   10.5771 N.ar    1  UNL1       -0.1447
     19 C          64.1171   90.2944   14.1224 C.3     1  UNL1        0.0462
     20 C          65.4312   90.9936   13.9381 C.ar    1  UNL1       -0.0190
     21 C          66.4456   90.9873   15.0432 C.ar    1  UNL1       -0.0041
     22 C          67.7597   91.6866   14.8589 C.ar    1  UNL1        0.0013
     23 C          68.0595   92.3921   13.5696 C.ar    1  UNL1        0.0209
     24 C          67.0452   92.3984   12.4646 C.ar    1  UNL1        0.1026
     25 C          65.7310   91.6992   12.6489 C.ar    1  UNL1        0.0167
     26 N          67.3451   93.1041   11.1753 N.ar    1  UNL1       -0.1478
     27 N          68.0796   92.5241   10.0031 N.ar    1  UNL1       -0.1447
     28 C          68.1516   93.5751    8.9352 C.ar    1  UNL1        0.1446
     29 C          67.4616   94.8045    9.4474 C.ar    1  UNL1        0.1446
     30 N          66.9631   94.5134   10.8319 N.ar    1  UNL1       -0.1447
@<TRIPOS>BOND
     1     1     2    2
     2     2     8    1
     3     8     9   ar
     4     9    10   ar
     5    10    11   ar
     6    11    12   ar
     7    12    13   ar
     8    13    14    1
     9    14    15   ar
    10    15    16   ar
    11    16    17   ar
    12    17    18   ar
    13     2     3   am
    14     3     4    1
    15     4     5    1
    16     5     6    1
    17     6     7    1
    18     7    19    1
    19    19    20    1
    20    20    21   ar
    21    21    22   ar
    22    22    23   ar
    23    23    24   ar
    24    24    26    1
    25    26    27   ar
    26    27    28   ar
    27    28    29   ar
    28    29    30   ar
    29    24    25   ar
    30    13     8   ar
    31    18    14   ar
    32     7     3    1
    33    25    20   ar
    34    30    26   ar
@<TRIPOS>MOLECULE
*****
 30 34 0 0 0
SMALL
GASTEIGER

@<TRIPOS>ATOM
      1 O          65.0014   85.1032   13.1157 O.2     1  UNL1       -0.2699
      2 C          63.9312   84.4440   13.9343 C.2     1  UNL1        0.2505
      3 N          63.3615   85.1476   15.1303 N.am    1  UNL1       -0.2773
      4 C          62.2929   84.6167   16.0394 C.3     1  UNL1        0.0937
      5 C          62.0313   85.6466   17.0981 C.3     1  UNL1        0.0232
      6 C          62.9382   86.8140   16.8434 C.3     1  UNL1        0.0219
      7 C          63.7602   86.5056   15.6272 C.3     1  UNL1        0.0800
      8 C          63.4307   83.0813   13.5570 C.ar    1  UNL1        0.0729
      9 C          63.5451   81.9445   14.5289 C.ar    1  UNL1        0.0061
     10 C          63.0446   80.5818   14.1515 C.ar    1  UNL1        0.0002
     11 C          62.4297   80.3558   12.8022 C.ar    1  UNL1        0.0016
     12 C          62.3152   81.4925   11.8301 C.ar    1  UNL1        0.0211
     13 C          62.8157   82.8553   12.2075 C.ar    1  UNL1        0.1072
     14 N          62.7013   83.9920   11.2356 N.ar    1  UNL1       -0.1477
     15 N          63.3541   84.0683    9.8872 N.ar    1  UNL1       -0.1447
     16 C          62.9703   85.3755    9.2596 C.ar    1  UNL1        0.1446
     17 C          62.0802   86.1071   10.2202 C.ar    1  UNL1        0.1446
     18 N          61.9140   85.2521   11.4414 N.ar    1  UNL1       -0.1447
     19 C          64.7988   87.3984   15.0154 C.3     1  UNL1        0.0462
     20 C          64.3904   88.4733   14.0522 C.ar    1  UNL1       -0.0190
     21 C          63.2965   88.2143   13.0590 C.ar    1  UNL1       -0.0041
     22 C          62.8882   89.2892   12.0958 C.ar    1  UNL1        0.0013
     23 C          63.5737   90.6231   12.1258 C.ar    1  UNL1        0.0209
     24 C          64.6675   90.8820   13.1190 C.ar    1  UNL1        0.1026
     25 C          65.0759   89.8071   14.0822 C.ar    1  UNL1        0.0167
     26 N          65.3530   92.2160   13.1490 N.ar    1  UNL1       -0.1478
     27 N          65.9643   92.8662   14.3546 N.ar    1  UNL1       -0.1447
     28 C          66.5366   94.1859   13.9294 C.ar    1  UNL1        0.1446
     29 C          66.2790   94.3513   12.4609 C.ar    1  UNL1        0.1446
     30 N          65.5475   93.1338   11.9786 N.ar    1  UNL1       -0.1447
@<TRIPOS>BOND
     1     1     2    2
     2     2     8    1
     3     8     9   ar
     4     9    10   ar
     5    10    11   ar
     6    11    12   ar
     7    12    13   ar
     8    13    14    1
     9    14    15   ar
    10    15    16   ar
    11    16    17   ar
    12    17    18   ar
    13     2     3   am
    14     3     4    1
    15     4     5    1
    16     5     6    1
    17     6     7    1
    18     7    19    1
    19    19    20    1
    20    20    21   ar
    21    21    22   ar
    22    22    23   ar
    23    23    24   ar
    24    24    26    1
    25    26    27   ar
    26    27    28   ar
    27    28    29   ar
    28    29    30   ar
    29    24    25   ar
    30    13     8   ar
    31    18    14   ar
    32     7     3    1
    33    25    20   ar
    34    30    26   ar
@<TRIPOS>MOLECULE
*****
 30 34 0 0 0
SMALL
GASTEIGER

@<TRIPOS>ATOM
      1 O          62.9417   87.6944   12.8832 O.2     1  UNL1       -0.2699
      2 C          62.9779   89.0457   12.2329 C.2     1  UNL1        0.2505
      3 N          62.0648   89.3489   11.0821 N.am    1  UNL1       -0.2773
      4 C          61.9884   90.6478   10.3358 C.3     1  UNL1        0.0937
      5 C          60.9443   90.5082    9.2680 C.3     1  UNL1        0.0232
      6 C          60.3754   89.1229    9.3543 C.3     1  UNL1        0.0219
      7 C          61.0679   88.4065   10.4755 C.3     1  UNL1        0.0800
      8 C          63.9271   90.0937   12.7336 C.ar    1  UNL1        0.0729
      9 C          64.3140   91.2402   11.8471 C.ar    1  UNL1        0.0061
     10 C          65.2633   92.2882   12.3477 C.ar    1  UNL1        0.0002
     11 C          65.8255   92.1898   13.7349 C.ar    1  UNL1        0.0016
     12 C          65.4385   91.0433   14.6214 C.ar    1  UNL1        0.0211
     13 C          64.4893   89.9953   14.1208 C.ar    1  UNL1        0.1072
     14 N          64.1023   88.8488   15.0073 N.ar    1  UNL1       -0.1477
     15 N          63.1319   88.9061   16.1496 N.ar    1  UNL1       -0.1447
     16 C          63.0476   87.5365   16.7554 C.ar    1  UNL1        0.1446
     17 C          63.9660   86.6327   15.9874 C.ar    1  UNL1        0.1446
     18 N          64.6179   87.4438   14.9070 N.ar    1  UNL1       -0.1447
     19 C          60.8090   86.9953   10.9132 C.3     1  UNL1        0.0462
     20 C          61.7561   85.9016   10.5174 C.ar    1  UNL1       -0.0190
     21 C          62.4352   85.9449    9.1806 C.ar    1  UNL1       -0.0041
     22 C          63.3823   84.8511    8.7848 C.ar    1  UNL1        0.0013
     23 C          63.6503   83.7141    9.7258 C.ar    1  UNL1        0.0209
     24 C          62.9712   83.6709   11.0625 C.ar    1  UNL1        0.1026
     25 C          62.0241   84.7646   11.4583 C.ar    1  UNL1        0.0167
     26 N          63.2393   82.5338   12.0035 N.ar    1  UNL1       -0.1478
     27 N          62.5027   81.2277   12.0403 N.ar    1  UNL1       -0.1447
     28 C          63.0991   80.3899   13.1323 C.ar    1  UNL1        0.1446
     29 C          64.2043   81.1783   13.7703 C.ar    1  UNL1        0.1446
     30 N          64.2909   82.5033   13.0726 N.ar    1  UNL1       -0.1447
@<TRIPOS>BOND
     1     1     2    2
     2     2     8    1
     3     8     9   ar
     4     9    10   ar
     5    10    11   ar
     6    11    12   ar
     7    12    13   ar
     8    13    14    1
     9    14    15   ar
    10    15    16   ar
    11    16    17   ar
    12    17    18   ar
    13     2     3   am
    14     3     4    1
    15     4     5    1
    16     5     6    1
    17     6     7    1
    18     7    19    1
    19    19    20    1
    20    20    21   ar
    21    21    22   ar
    22    22    23   ar
    23    23    24   ar
    24    24    26    1
    25    26    27   ar
    26    27    28   ar
    27    28    29   ar
    28    29    30   ar
    29    24    25   ar
    30    13     8   ar
    31    18    14   ar
    32     7     3    1
    33    25    20   ar
    34    30    26   ar
