@<TRIPOS>MOLECULE
*****
 32 37 0 0 0
SMALL
GASTEIGER

@<TRIPOS>ATOM
      1 N          57.4437   95.3692   -2.1803 N.pl3   1  UNL1       -0.3074
      2 C          58.2406   94.1676   -2.5939 C.3     1  UNL1        0.0908
      3 C          59.5983   93.9284   -2.0028 C.3     1  UNL1        0.0237
      4 C          60.1591   94.8907   -0.9981 C.3     1  UNL1        0.0285
      5 C          59.3622   96.0924   -0.5845 C.3     1  UNL1        0.0237
      6 C          58.0045   96.3316   -1.1756 C.3     1  UNL1        0.0908
      7 C          61.5168   94.6514   -0.4070 C.3     1  UNL1        0.1117
      8 C          61.8292   93.7429    0.7450 C.ar    1  UNL1        0.0272
      9 C          60.9598   92.8642    1.5948 C.ar    1  UNL1        0.1379
     10 F          59.4832   92.7985    1.3400 F       1  UNL1       -0.2044
     11 C          61.5672   92.0513    2.6995 C.ar    1  UNL1        0.0294
     12 C          63.0439   92.1171    2.9543 C.ar    1  UNL1        0.0023
     13 C          63.9133   92.9957    2.1046 C.ar    1  UNL1        0.0014
     14 C          63.3060   93.8086    0.9999 C.ar    1  UNL1        0.0173
     15 C          63.9062   94.7577    0.0054 C.ar    1  UNL1        0.0804
     16 C          65.1898   95.3849   -0.4516 C.ar    1  UNL1        0.1178
     17 N          64.8774   96.2934   -1.6036 N.ar    1  UNL1       -0.2223
     18 C          63.4006   96.2277   -1.8585 C.ar    1  UNL1        0.1788
     19 N          62.8004   95.2786   -0.8640 N.ar    1  UNL1       -0.3069
     20 C          53.3706   96.0871   -3.9536 C.ar    1  UNL1        0.0306
     21 C          54.5972   96.2508   -4.8014 C.ar    1  UNL1        0.0036
     22 C          55.9549   96.0116   -4.2103 C.ar    1  UNL1        0.0147
     23 C          56.0860   95.6085   -2.7714 C.ar    1  UNL1        0.0501
     24 C          54.8594   95.4447   -1.9236 C.ar    1  UNL1        0.0441
     25 C          53.5017   95.6840   -2.5147 C.ar    1  UNL1        0.1414
     26 F          52.2752   95.5202   -1.6670 F       1  UNL1       -0.2041
     27 C          49.4606   96.7886   -7.4322 C.3     1  UNL1        0.1538
     28 N          50.2157   96.6488   -6.1436 N.ar    1  UNL1       -0.2473
     29 C          51.6875   96.3930   -6.0074 C.ar    1  UNL1        0.0967
     30 C          52.0129   96.3263   -4.5448 C.ar    1  UNL1        0.0418
     31 C          50.7424   96.5410   -3.7768 C.ar    1  UNL1        0.1217
     32 N          49.6317   96.7403   -4.7651 N.ar    1  UNL1       -0.1676
@<TRIPOS>BOND
     1    27    28    1
     2    28    29   ar
     3    29    30   ar
     4    30    20    1
     5    20    21   ar
     6    21    22   ar
     7    22    23   ar
     8    23     1    1
     9     1     2    1
    10     2     3    1
    11     3     4    1
    12     4     7    1
    13     7     8    1
    14     8     9   ar
    15     9    10    1
    16     9    11   ar
    17    11    12   ar
    18    12    13   ar
    19    13    14   ar
    20    14    15    1
    21    15    16   ar
    22    16    17   ar
    23    17    18   ar
    24    18    19   ar
    25     4     5    1
    26     5     6    1
    27    23    24   ar
    28    24    25   ar
    29    25    26    1
    30    30    31   ar
    31    31    32   ar
    32    32    28   ar
    33    25    20   ar
    34     6     1    1
    35    19     7    1
    36    14     8   ar
    37    19    15   ar
@<TRIPOS>MOLECULE
*****
 32 37 0 0 0
SMALL
GASTEIGER

@<TRIPOS>ATOM
      1 N          72.3692   76.2077   13.4197 N.pl3   1  UNL1       -0.3074
      2 C          73.4688   75.2258   13.6966 C.3     1  UNL1        0.0908
      3 C          73.2758   74.1550   14.7291 C.3     1  UNL1        0.0237
      4 C          71.9831   74.0660   15.4847 C.3     1  UNL1        0.0285
      5 C          70.8833   75.0479   15.2078 C.3     1  UNL1        0.0237
      6 C          71.0764   76.1188   14.1753 C.3     1  UNL1        0.0908
      7 C          71.7900   72.9952   16.5172 C.3     1  UNL1        0.1117
      8 C          71.6793   71.5232   16.2507 C.ar    1  UNL1        0.0272
      9 C          71.7229   70.7271   14.9802 C.ar    1  UNL1        0.1379
     10 F          71.9076   71.4236   13.6647 F       1  UNL1       -0.2044
     11 C          71.5818   69.2344   15.0252 C.ar    1  UNL1        0.0294
     12 C          71.3971   68.5379   16.3407 C.ar    1  UNL1        0.0023
     13 C          71.3535   69.3340   17.6113 C.ar    1  UNL1        0.0014
     14 C          71.4947   70.8266   17.5663 C.ar    1  UNL1        0.0173
     15 C          71.4912   71.8681   18.6458 C.ar    1  UNL1        0.0804
     16 C          71.3749   72.0812   20.1260 C.ar    1  UNL1        0.1178
     17 N          71.4855   73.5532   20.3925 N.ar    1  UNL1       -0.2223
     18 C          71.6702   74.2498   19.0769 C.ar    1  UNL1        0.1788
     19 N          71.6737   73.2083   17.9974 N.ar    1  UNL1       -0.3069
     20 C          72.9484   79.4202   10.3222 C.ar    1  UNL1        0.0306
     21 C          73.6318   78.0943   10.1645 C.ar    1  UNL1        0.0036
     22 C          73.4388   77.0235   11.1970 C.ar    1  UNL1        0.0147
     23 C          72.5623   77.2785   12.3872 C.ar    1  UNL1        0.0501
     24 C          71.8787   78.6044   12.5449 C.ar    1  UNL1        0.0441
     25 C          72.0718   79.6753   11.5124 C.ar    1  UNL1        0.1414
     26 F          71.3883   81.0011   11.6701 F       1  UNL1       -0.2041
     27 C          73.1722   81.9513    5.6936 C.3     1  UNL1        0.1538
     28 N          73.2443   81.6544    7.1622 N.ar    1  UNL1       -0.2473
     29 C          72.9407   80.3366    7.8113 C.ar    1  UNL1        0.0967
     30 C          73.1414   80.4910    9.2897 C.ar    1  UNL1        0.0418
     31 C          73.5692   81.9041    9.5545 C.ar    1  UNL1        0.1217
     32 N          73.6327   82.6232    8.2396 N.ar    1  UNL1       -0.1676
@<TRIPOS>BOND
     1    27    28    1
     2    28    29   ar
     3    29    30   ar
     4    30    20    1
     5    20    21   ar
     6    21    22   ar
     7    22    23   ar
     8    23     1    1
     9     1     2    1
    10     2     3    1
    11     3     4    1
    12     4     7    1
    13     7     8    1
    14     8     9   ar
    15     9    10    1
    16     9    11   ar
    17    11    12   ar
    18    12    13   ar
    19    13    14   ar
    20    14    15    1
    21    15    16   ar
    22    16    17   ar
    23    17    18   ar
    24    18    19   ar
    25     4     5    1
    26     5     6    1
    27    23    24   ar
    28    24    25   ar
    29    25    26    1
    30    30    31   ar
    31    31    32   ar
    32    32    28   ar
    33    25    20   ar
    34     6     1    1
    35    19     7    1
    36    14     8   ar
    37    19    15   ar
@<TRIPOS>MOLECULE
*****
 32 37 0 0 0
SMALL
GASTEIGER

@<TRIPOS>ATOM
      1 N          57.4005   95.3502   -2.4036 N.pl3   1  UNL1       -0.3074
      2 C          58.6510   95.1371   -3.2041 C.3     1  UNL1        0.0908
      3 C          59.9570   94.8989   -2.5058 C.3     1  UNL1        0.0237
      4 C          60.0126   94.8738   -1.0071 C.3     1  UNL1        0.0285
      5 C          58.7620   95.0869   -0.2065 C.3     1  UNL1        0.0237
      6 C          57.4560   95.3252   -0.9048 C.3     1  UNL1        0.0908
      7 C          61.3186   94.6356   -0.3088 C.3     1  UNL1        0.1117
      8 C          62.6310   95.2766   -0.6508 C.ar    1  UNL1        0.0272
      9 C          63.0180   96.2703   -1.7057 C.ar    1  UNL1        0.1379
     10 F          61.9840   96.7952   -2.6571 F       1  UNL1       -0.2044
     11 C          64.4391   96.7392   -1.8090 C.ar    1  UNL1        0.0294
     12 C          65.4731   96.2143   -0.8576 C.ar    1  UNL1        0.0023
     13 C          65.0861   95.2206    0.1973 C.ar    1  UNL1        0.0014
     14 C          63.6650   94.7517    0.3007 C.ar    1  UNL1        0.0173
     15 C          62.9918   93.7864    1.2306 C.ar    1  UNL1        0.0804
     16 C          63.2148   92.8654    2.3934 C.ar    1  UNL1        0.1178
     17 N          61.9024   92.2245    2.7354 N.ar    1  UNL1       -0.2223
     18 C          60.8683   92.7493    1.7839 C.ar    1  UNL1        0.1788
     19 N          61.5416   93.7146    0.8539 N.ar    1  UNL1       -0.3069
     20 C          53.4824   96.0649   -4.4983 C.ar    1  UNL1        0.0306
     21 C          53.6922   96.5779   -3.1045 C.ar    1  UNL1        0.0036
     22 C          54.9982   96.3397   -2.4062 C.ar    1  UNL1        0.0147
     23 C          56.0945   95.5885   -3.1018 C.ar    1  UNL1        0.0501
     24 C          55.8847   95.0754   -4.4957 C.ar    1  UNL1        0.0441
     25 C          54.5787   95.3136   -5.1939 C.ar    1  UNL1        0.1414
     26 F          54.3689   94.8006   -6.5878 F       1  UNL1       -0.2041
     27 C          48.3081   96.4659   -5.4713 C.3     1  UNL1        0.1538
     28 N          49.7981   96.4874   -5.6437 N.ar    1  UNL1       -0.2473
     29 C          50.8124   96.1483   -4.5920 C.ar    1  UNL1        0.0967
     30 C          52.1764   96.3031   -5.1965 C.ar    1  UNL1        0.0418
     31 C          52.0052   96.7380   -6.6219 C.ar    1  UNL1        0.1217
     32 N          50.5352   96.8519   -6.8982 N.ar    1  UNL1       -0.1676
@<TRIPOS>BOND
     1    27    28    1
     2    28    29   ar
     3    29    30   ar
     4    30    20    1
     5    20    21   ar
     6    21    22   ar
     7    22    23   ar
     8    23     1    1
     9     1     2    1
    10     2     3    1
    11     3     4    1
    12     4     7    1
    13     7     8    1
    14     8     9   ar
    15     9    10    1
    16     9    11   ar
    17    11    12   ar
    18    12    13   ar
    19    13    14   ar
    20    14    15    1
    21    15    16   ar
    22    16    17   ar
    23    17    18   ar
    24    18    19   ar
    25     4     5    1
    26     5     6    1
    27    23    24   ar
    28    24    25   ar
    29    25    26    1
    30    30    31   ar
    31    31    32   ar
    32    32    28   ar
    33    25    20   ar
    34     6     1    1
    35    19     7    1
    36    14     8   ar
    37    19    15   ar
@<TRIPOS>MOLECULE
*****
 32 37 0 0 0
SMALL
GASTEIGER

@<TRIPOS>ATOM
      1 N          63.8704   87.2187   13.7404 N.pl3   1  UNL1       -0.3074
      2 C          64.8535   87.6749   14.7773 C.3     1  UNL1        0.0908
      3 C          65.3954   89.0730   14.7334 C.3     1  UNL1        0.0237
      4 C          64.9540   90.0148   13.6526 C.3     1  UNL1        0.0285
      5 C          63.9708   89.5586   12.6156 C.3     1  UNL1        0.0237
      6 C          63.4290   88.1605   12.6595 C.3     1  UNL1        0.0908
      7 C          65.4959   91.4128   13.6087 C.3     1  UNL1        0.1117
      8 C          65.4172   92.3527   12.4422 C.ar    1  UNL1        0.0272
      9 C          64.8244   92.2047   11.0723 C.ar    1  UNL1        0.1379
     10 F          64.1574   90.9203   10.6784 F       1  UNL1       -0.2044
     11 C          64.8986   93.3414   10.0963 C.ar    1  UNL1        0.0294
     12 C          65.5656   94.6258   10.4902 C.ar    1  UNL1        0.0023
     13 C          66.1584   94.7738   11.8601 C.ar    1  UNL1        0.0014
     14 C          66.0842   93.6372   12.8362 C.ar    1  UNL1        0.0173
     15 C          66.5751   93.4912   14.2460 C.ar    1  UNL1        0.0804
     16 C          67.2908   94.1949   15.3608 C.ar    1  UNL1        0.1178
     17 N          67.3694   93.2550   16.5272 N.ar    1  UNL1       -0.2223
     18 C          66.7024   91.9705   16.1333 C.ar    1  UNL1        0.1788
     19 N          66.2115   92.1165   14.7234 N.ar    1  UNL1       -0.3069
     20 C          62.2449   83.0246   13.8721 C.ar    1  UNL1        0.0306
     21 C          62.4634   83.7847   15.1467 C.ar    1  UNL1        0.0036
     22 C          63.0052   85.1827   15.1028 C.ar    1  UNL1        0.0147
     23 C          63.3285   85.8207   13.7843 C.ar    1  UNL1        0.0501
     24 C          63.1100   85.0606   12.5097 C.ar    1  UNL1        0.0441
     25 C          62.5682   83.6626   12.5536 C.ar    1  UNL1        0.1414
     26 F          62.3497   82.9025   11.2790 F       1  UNL1       -0.2041
     27 C          58.9642   78.9257   14.4353 C.3     1  UNL1        0.1538
     28 N          60.1951   79.7426   14.1749 N.ar    1  UNL1       -0.2473
     29 C          60.2938   81.2374   14.2514 C.ar    1  UNL1        0.0967
     30 C          61.7030   81.6266   13.9160 C.ar    1  UNL1        0.0418
     31 C          62.4754   80.3724   13.6323 C.ar    1  UNL1        0.1217
     32 N          61.5434   79.2080   13.7923 N.ar    1  UNL1       -0.1676
@<TRIPOS>BOND
     1    27    28    1
     2    28    29   ar
     3    29    30   ar
     4    30    20    1
     5    20    21   ar
     6    21    22   ar
     7    22    23   ar
     8    23     1    1
     9     1     2    1
    10     2     3    1
    11     3     4    1
    12     4     7    1
    13     7     8    1
    14     8     9   ar
    15     9    10    1
    16     9    11   ar
    17    11    12   ar
    18    12    13   ar
    19    13    14   ar
    20    14    15    1
    21    15    16   ar
    22    16    17   ar
    23    17    18   ar
    24    18    19   ar
    25     4     5    1
    26     5     6    1
    27    23    24   ar
    28    24    25   ar
    29    25    26    1
    30    30    31   ar
    31    31    32   ar
    32    32    28   ar
    33    25    20   ar
    34     6     1    1
    35    19     7    1
    36    14     8   ar
    37    19    15   ar
@<TRIPOS>MOLECULE
*****
 32 37 0 0 0
SMALL
GASTEIGER

@<TRIPOS>ATOM
      1 N          72.0905   76.4250   12.2981 N.pl3   1  UNL1       -0.3074
      2 C          73.4287   76.5406   11.6304 C.3     1  UNL1        0.0908
      3 C          73.6329   77.5363   10.5273 C.3     1  UNL1        0.0237
      4 C          72.4990   78.4164   10.0918 C.3     1  UNL1        0.0285
      5 C          71.1607   78.3008   10.7596 C.3     1  UNL1        0.0237
      6 C          70.9565   77.3051   11.8627 C.3     1  UNL1        0.0908
      7 C          72.7032   79.4120    8.9887 C.3     1  UNL1        0.1117
      8 C          72.5884   80.9025    9.1138 C.ar    1  UNL1        0.0272
      9 C          72.2620   81.7898   10.2783 C.ar    1  UNL1        0.1379
     10 F          71.9781   81.1886   11.6228 F       1  UNL1       -0.2044
     11 C          72.2195   83.2784   10.0982 C.ar    1  UNL1        0.0294
     12 C          72.5035   83.8795    8.7536 C.ar    1  UNL1        0.0023
     13 C          72.8299   82.9922    7.5891 C.ar    1  UNL1        0.0014
     14 C          72.8724   81.5036    7.7691 C.ar    1  UNL1        0.0173
     15 C          73.1627   80.3848    6.8131 C.ar    1  UNL1        0.0804
     16 C          73.5176   80.0650    5.3912 C.ar    1  UNL1        0.1178
     17 N          73.6324   78.5746    5.2662 N.ar    1  UNL1       -0.2223
     18 C          73.3484   77.9734    6.6108 C.ar    1  UNL1        0.1788
     19 N          73.0581   79.0922    7.5668 N.ar    1  UNL1       -0.3069
     20 C          71.4778   73.4380   15.6076 C.ar    1  UNL1        0.0306
     21 C          72.5773   73.2346   14.6078 C.ar    1  UNL1        0.0036
     22 C          72.7816   74.2303   13.5046 C.ar    1  UNL1        0.0147
     23 C          71.8863   75.4294   13.4013 C.ar    1  UNL1        0.0501
     24 C          70.7867   75.6328   14.4012 C.ar    1  UNL1        0.0441
     25 C          70.5825   74.6371   15.5043 C.ar    1  UNL1        0.1414
     26 F          69.4830   74.8405   16.5041 F       1  UNL1       -0.2041
     27 C          70.9277   68.8852   18.2249 C.3     1  UNL1        0.1538
     28 N          71.0207   70.3497   17.9137 N.ar    1  UNL1       -0.2473
     29 C          71.2529   70.9503   16.5590 C.ar    1  UNL1        0.0967
     30 C          71.2736   72.4424   16.7107 C.ar    1  UNL1        0.0418
     31 C          71.0542   72.7642   18.1593 C.ar    1  UNL1        0.1217
     32 N          70.8979   71.4707   18.9028 N.ar    1  UNL1       -0.1676
@<TRIPOS>BOND
     1    27    28    1
     2    28    29   ar
     3    29    30   ar
     4    30    20    1
     5    20    21   ar
     6    21    22   ar
     7    22    23   ar
     8    23     1    1
     9     1     2    1
    10     2     3    1
    11     3     4    1
    12     4     7    1
    13     7     8    1
    14     8     9   ar
    15     9    10    1
    16     9    11   ar
    17    11    12   ar
    18    12    13   ar
    19    13    14   ar
    20    14    15    1
    21    15    16   ar
    22    16    17   ar
    23    17    18   ar
    24    18    19   ar
    25     4     5    1
    26     5     6    1
    27    23    24   ar
    28    24    25   ar
    29    25    26    1
    30    30    31   ar
    31    31    32   ar
    32    32    28   ar
    33    25    20   ar
    34     6     1    1
    35    19     7    1
    36    14     8   ar
    37    19    15   ar
@<TRIPOS>MOLECULE
*****
 32 37 0 0 0
SMALL
GASTEIGER

@<TRIPOS>ATOM
      1 N          72.1932   76.5234   11.9541 N.pl3   1  UNL1       -0.3074
      2 C          73.4964   76.7674   11.2526 C.3     1  UNL1        0.0908
      3 C          73.6328   77.9211   10.3038 C.3     1  UNL1        0.0237
      4 C          72.4662   78.8309   10.0565 C.3     1  UNL1        0.0285
      5 C          71.1629   78.5869   10.7581 C.3     1  UNL1        0.0237
      6 C          71.0264   77.4332   11.7069 C.3     1  UNL1        0.0908
      7 C          72.6027   79.9846    9.1077 C.3     1  UNL1        0.1117
      8 C          72.9641   79.8932    7.6547 C.ar    1  UNL1        0.0272
      9 C          73.2757   78.7230    6.7696 C.ar    1  UNL1        0.1379
     10 F          73.2533   77.3319    7.3300 F       1  UNL1       -0.2044
     11 C          73.6097   78.9440    5.3240 C.ar    1  UNL1        0.0294
     12 C          73.6321   80.3352    4.7637 C.ar    1  UNL1        0.0023
     13 C          73.3205   81.5055    5.6488 C.ar    1  UNL1        0.0014
     14 C          72.9865   81.2845    7.0943 C.ar    1  UNL1        0.0173
     15 C          72.6389   82.2356    8.2009 C.ar    1  UNL1        0.0804
     16 C          72.4380   83.6833    8.5384 C.ar    1  UNL1        0.1178
     17 N          72.0766   83.7746    9.9914 N.ar    1  UNL1       -0.2223
     18 C          72.0542   82.3834   10.5518 C.ar    1  UNL1        0.1788
     19 N          72.4017   81.4323    9.4452 N.ar    1  UNL1       -0.3069
     20 C          71.7837   73.0621   14.8006 C.ar    1  UNL1        0.0306
     21 C          71.7870   74.4676   15.3244 C.ar    1  UNL1        0.0036
     22 C          71.9235   75.6214   14.3756 C.ar    1  UNL1        0.0147
     23 C          72.0567   75.3696   12.9029 C.ar    1  UNL1        0.0501
     24 C          72.0534   73.9641   12.3790 C.ar    1  UNL1        0.0441
     25 C          71.9169   72.8103   13.3278 C.ar    1  UNL1        0.1414
     26 F          71.9137   71.4048   12.8040 F       1  UNL1       -0.2041
     27 C          72.2375   68.2769   16.9862 C.3     1  UNL1        0.1538
     28 N          71.8558   69.7089   16.7540 N.ar    1  UNL1       -0.2473
     29 C          72.2443   70.5442   15.5701 C.ar    1  UNL1        0.0967
     30 C          71.6472   71.9084   15.7494 C.ar    1  UNL1        0.0418
     31 C          70.8897   71.9165   17.0440 C.ar    1  UNL1        0.1217
     32 N          71.0186   70.5571   17.6649 N.ar    1  UNL1       -0.1676
@<TRIPOS>BOND
     1    27    28    1
     2    28    29   ar
     3    29    30   ar
     4    30    20    1
     5    20    21   ar
     6    21    22   ar
     7    22    23   ar
     8    23     1    1
     9     1     2    1
    10     2     3    1
    11     3     4    1
    12     4     7    1
    13     7     8    1
    14     8     9   ar
    15     9    10    1
    16     9    11   ar
    17    11    12   ar
    18    12    13   ar
    19    13    14   ar
    20    14    15    1
    21    15    16   ar
    22    16    17   ar
    23    17    18   ar
    24    18    19   ar
    25     4     5    1
    26     5     6    1
    27    23    24   ar
    28    24    25   ar
    29    25    26    1
    30    30    31   ar
    31    31    32   ar
    32    32    28   ar
    33    25    20   ar
    34     6     1    1
    35    19     7    1
    36    14     8   ar
    37    19    15   ar
