@<TRIPOS>MOLECULE
*****
 26 29 0 0 0
SMALL
GASTEIGER

@<TRIPOS>ATOM
      1 C          63.0319   85.6097   12.3763 C.ar    1  UNL1       -0.0002
      2 C          63.7304   86.3189   13.4983 C.ar    1  UNL1       -0.0003
      3 C          63.8358   87.8152   13.4895 C.ar    1  UNL1       -0.0043
      4 C          63.2425   88.6022   12.3587 C.ar    1  UNL1       -0.0224
      5 C          62.5440   87.8929   11.2367 C.ar    1  UNL1       -0.0258
      6 C          62.4387   86.3967   11.2455 C.ar    1  UNL1       -0.0046
      7 C          61.9508   88.6799   10.1059 C.3     1  UNL1        0.0261
      8 C          62.0561   90.1761   10.0971 C.3     1  UNL1        0.0053
      9 C          62.7547   90.8855   11.2191 C.3     1  UNL1        0.0091
     10 C          63.3479   90.0985   12.3500 C.3     1  UNL1        0.0444
     11 O          62.6106   79.6246   12.4114 O.3     1  UNL1       -0.5029
     12 C          62.7159   81.1208   12.4026 C.ar    1  UNL1        0.1675
     13 C          63.1780   81.8329   11.1659 C.ar    1  UNL1        0.0398
     14 C          63.2833   83.3292   11.1572 C.ar    1  UNL1        0.0033
     15 C          62.9266   84.1134   12.3851 C.ar    1  UNL1        0.0032
     16 C          62.4645   83.4013   13.6218 C.ar    1  UNL1        0.0398
     17 C          62.3592   81.9050   13.6306 C.ar    1  UNL1        0.1675
     18 O          61.8971   81.1930   14.8673 O.3     1  UNL1       -0.5029
     19 H          62.8334   79.1347   11.6444 H       1  UNL1        0.2923
     20 H          61.6742   81.6828   15.6343 H       1  UNL1        0.2923
     21 C          64.0464   90.8077   13.4720 C.ar    1  UNL1       -0.0154
     22 C          65.2475   91.6602   13.1880 C.ar    1  UNL1        0.0167
     23 C          65.9461   92.3695   14.3101 C.ar    1  UNL1        0.0986
     24 N          65.4435   92.2263   15.7161 N.ar    1  UNL1       -0.2423
     25 C          64.2423   91.3738   16.0001 C.ar    1  UNL1        0.0986
     26 C          63.5438   90.6646   14.8780 C.ar    1  UNL1        0.0167
@<TRIPOS>BOND
     1    11    12    1
     2    12    13   ar
     3    13    14   ar
     4    14    15   ar
     5    15     1    1
     6     1     2   ar
     7     2     3   ar
     8     3     4   ar
     9     4     5   ar
    10     5     6   ar
    11     5     7    1
    12     7     8    1
    13     8     9    1
    14     9    10    1
    15    10    21    1
    16    21    22   ar
    17    22    23   ar
    18    23    24   ar
    19    24    25   ar
    20    25    26   ar
    21    15    16   ar
    22    16    17   ar
    23    17    18    1
    24    17    12   ar
    25     6     1   ar
    26    26    21   ar
    27    10     4    1
    28    11    19    1
    29    18    20    1
@<TRIPOS>MOLECULE
*****
 26 29 0 0 0
SMALL
GASTEIGER

@<TRIPOS>ATOM
      1 C          63.0501   85.6954   12.7214 C.ar    1  UNL1       -0.0002
      2 C          63.7614   86.4493   13.8057 C.ar    1  UNL1       -0.0003
      3 C          63.9197   87.9375   13.7045 C.ar    1  UNL1       -0.0043
      4 C          63.3667   88.6717   12.5192 C.ar    1  UNL1       -0.0224
      5 C          62.6554   87.9178   11.4350 C.ar    1  UNL1       -0.0258
      6 C          62.4971   86.4297   11.5361 C.ar    1  UNL1       -0.0046
      7 C          62.1024   88.6521   10.2496 C.3     1  UNL1        0.0261
      8 C          62.2607   90.1402   10.1485 C.3     1  UNL1        0.0053
      9 C          62.9720   90.8942   11.2328 C.3     1  UNL1        0.0091
     10 C          63.5250   90.1600   12.4181 C.3     1  UNL1        0.0444
     11 O          62.4169   79.7426   13.1256 O.3     1  UNL1       -0.5029
     12 C          62.5752   81.2308   13.0246 C.ar    1  UNL1        0.1675
     13 C          62.3811   82.0898   14.2389 C.ar    1  UNL1        0.0398
     14 C          62.5395   83.5780   14.1378 C.ar    1  UNL1        0.0033
     15 C          62.8918   84.2072   12.8225 C.ar    1  UNL1        0.0032
     16 C          63.0858   83.3481   11.6082 C.ar    1  UNL1        0.0398
     17 C          62.9275   81.8600   11.7093 C.ar    1  UNL1        0.1675
     18 O          63.1215   81.0009   10.4950 O.3     1  UNL1       -0.5029
     19 H          62.1968   79.3496   13.9472 H       1  UNL1        0.2923
     20 H          63.3416   81.3940    9.6734 H       1  UNL1        0.2923
     21 C          64.2363   90.9139   13.5024 C.ar    1  UNL1       -0.0154
     22 C          65.4212   91.7704   13.1671 C.ar    1  UNL1        0.0167
     23 C          66.1325   92.5243   14.2514 C.ar    1  UNL1        0.0986
     24 N          65.6589   92.4217   15.6709 N.ar    1  UNL1       -0.2423
     25 C          64.4740   91.5653   16.0062 C.ar    1  UNL1        0.0986
     26 C          63.7627   90.8114   14.9220 C.ar    1  UNL1        0.0167
@<TRIPOS>BOND
     1    11    12    1
     2    12    13   ar
     3    13    14   ar
     4    14    15   ar
     5    15     1    1
     6     1     2   ar
     7     2     3   ar
     8     3     4   ar
     9     4     5   ar
    10     5     6   ar
    11     5     7    1
    12     7     8    1
    13     8     9    1
    14     9    10    1
    15    10    21    1
    16    21    22   ar
    17    22    23   ar
    18    23    24   ar
    19    24    25   ar
    20    25    26   ar
    21    15    16   ar
    22    16    17   ar
    23    17    18    1
    24    17    12   ar
    25     6     1   ar
    26    26    21   ar
    27    10     4    1
    28    11    19    1
    29    18    20    1
@<TRIPOS>MOLECULE
*****
 26 29 0 0 0
SMALL
GASTEIGER

@<TRIPOS>ATOM
      1 C          64.4336   89.0299   13.9887 C.ar    1  UNL1       -0.0002
      2 C          64.6360   87.6796   14.6099 C.ar    1  UNL1       -0.0003
      3 C          64.0015   86.4680   13.9940 C.ar    1  UNL1       -0.0043
      4 C          63.1645   86.6067   12.7570 C.ar    1  UNL1       -0.0224
      5 C          62.9621   87.9569   12.1358 C.ar    1  UNL1       -0.0258
      6 C          63.5967   89.1685   12.7517 C.ar    1  UNL1       -0.0046
      7 C          62.1252   88.0955   10.8987 C.3     1  UNL1        0.0261
      8 C          61.4906   86.8839   10.2829 C.3     1  UNL1        0.0053
      9 C          61.6930   85.5336   10.9040 C.3     1  UNL1        0.0091
     10 C          62.5300   85.3950   12.1411 C.3     1  UNL1        0.0444
     11 O          66.9717   93.8765   16.4523 O.3     1  UNL1       -0.5029
     12 C          66.3372   92.6649   15.8364 C.ar    1  UNL1        0.1675
     13 C          67.0970   91.8483   14.8334 C.ar    1  UNL1        0.0398
     14 C          66.4624   90.6366   14.2175 C.ar    1  UNL1        0.0033
     15 C          65.0682   90.2415   14.6046 C.ar    1  UNL1        0.0032
     16 C          64.3084   91.0581   15.6076 C.ar    1  UNL1        0.0398
     17 C          64.9428   92.2697   16.2235 C.ar    1  UNL1        0.1675
     18 O          64.1830   93.0863   17.2264 O.3     1  UNL1       -0.5029
     19 H          67.8426   94.1233   16.2105 H       1  UNL1        0.2923
     20 H          63.3121   92.8395   17.4682 H       1  UNL1        0.2923
     21 C          62.7324   84.0448   12.7623 C.ar    1  UNL1       -0.0154
     22 C          63.5943   83.0258   12.0776 C.ar    1  UNL1        0.0167
     23 C          63.7966   81.6755   12.6988 C.ar    1  UNL1        0.0986
     24 N          63.1372   81.3443   14.0047 N.ar    1  UNL1       -0.2423
     25 C          62.2753   82.3633   14.6894 C.ar    1  UNL1        0.0986
     26 C          62.0729   83.7135   14.0682 C.ar    1  UNL1        0.0167
@<TRIPOS>BOND
     1    11    12    1
     2    12    13   ar
     3    13    14   ar
     4    14    15   ar
     5    15     1    1
     6     1     2   ar
     7     2     3   ar
     8     3     4   ar
     9     4     5   ar
    10     5     6   ar
    11     5     7    1
    12     7     8    1
    13     8     9    1
    14     9    10    1
    15    10    21    1
    16    21    22   ar
    17    22    23   ar
    18    23    24   ar
    19    24    25   ar
    20    25    26   ar
    21    15    16   ar
    22    16    17   ar
    23    17    18    1
    24    17    12   ar
    25     6     1   ar
    26    26    21   ar
    27    10     4    1
    28    11    19    1
    29    18    20    1
@<TRIPOS>MOLECULE
*****
 26 29 0 0 0
SMALL
GASTEIGER

@<TRIPOS>ATOM
      1 C          63.1963   84.5797   13.9193 C.ar    1  UNL1       -0.0002
      2 C          63.6367   85.6526   12.9682 C.ar    1  UNL1       -0.0003
      3 C          63.8070   87.0616   13.4538 C.ar    1  UNL1       -0.0043
      4 C          63.5369   87.3976   14.8905 C.ar    1  UNL1       -0.0224
      5 C          63.0964   86.3246   15.8416 C.ar    1  UNL1       -0.0258
      6 C          62.9261   84.9157   15.3561 C.ar    1  UNL1       -0.0046
      7 C          62.8263   86.6606   17.2783 C.3     1  UNL1        0.0261
      8 C          62.9966   88.0695   17.7639 C.3     1  UNL1        0.0053
      9 C          63.4371   89.1426   16.8127 C.3     1  UNL1        0.0091
     10 C          63.7072   88.8066   15.3760 C.3     1  UNL1        0.0444
     11 O          62.5150   78.9437   11.9771 O.3     1  UNL1       -0.5029
     12 C          62.6853   80.3526   12.4627 C.ar    1  UNL1        0.1675
     13 C          62.4218   80.6873   13.9009 C.ar    1  UNL1        0.0398
     14 C          62.5921   82.0963   14.3865 C.ar    1  UNL1        0.0033
     15 C          63.0259   83.1706   13.4338 C.ar    1  UNL1        0.0032
     16 C          63.2895   82.8360   11.9956 C.ar    1  UNL1        0.0398
     17 C          63.1192   81.4270   11.5100 C.ar    1  UNL1        0.1675
     18 O          63.3827   81.0923   10.0718 O.3     1  UNL1       -0.5029
     19 H          62.2440   78.2726   12.5723 H       1  UNL1        0.2923
     20 H          63.6537   81.7634    9.4766 H       1  UNL1        0.2923
     21 C          64.1477   89.8795   14.4249 C.ar    1  UNL1       -0.0154
     22 C          63.3302   90.1813   13.2039 C.ar    1  UNL1        0.0167
     23 C          63.7707   91.2543   12.2528 C.ar    1  UNL1        0.0986
     24 N          65.0287   92.0255   12.5225 N.ar    1  UNL1       -0.2423
     25 C          65.8461   91.7237   13.7435 C.ar    1  UNL1        0.0986
     26 C          65.4057   90.6508   14.6946 C.ar    1  UNL1        0.0167
@<TRIPOS>BOND
     1    11    12    1
     2    12    13   ar
     3    13    14   ar
     4    14    15   ar
     5    15     1    1
     6     1     2   ar
     7     2     3   ar
     8     3     4   ar
     9     4     5   ar
    10     5     6   ar
    11     5     7    1
    12     7     8    1
    13     8     9    1
    14     9    10    1
    15    10    21    1
    16    21    22   ar
    17    22    23   ar
    18    23    24   ar
    19    24    25   ar
    20    25    26   ar
    21    15    16   ar
    22    16    17   ar
    23    17    18    1
    24    17    12   ar
    25     6     1   ar
    26    26    21   ar
    27    10     4    1
    28    11    19    1
    29    18    20    1
@<TRIPOS>MOLECULE
*****
 26 29 0 0 0
SMALL
GASTEIGER

@<TRIPOS>ATOM
      1 C          62.3471   84.6162   11.9225 C.ar    1  UNL1       -0.0002
      2 C          63.2055   85.6637   12.5674 C.ar    1  UNL1       -0.0003
      3 C          63.1404   87.0844   12.0907 C.ar    1  UNL1       -0.0043
      4 C          62.2168   87.4577   10.9693 C.ar    1  UNL1       -0.0224
      5 C          61.3584   86.4102   10.3244 C.ar    1  UNL1       -0.0258
      6 C          61.4235   84.9895   10.8010 C.ar    1  UNL1       -0.0046
      7 C          60.4348   86.7835    9.2029 C.3     1  UNL1        0.0261
      8 C          60.3697   88.2042    8.7263 C.3     1  UNL1        0.0053
      9 C          61.2281   89.2518    9.3712 C.3     1  UNL1        0.0091
     10 C          62.1517   88.8785   10.4926 C.3     1  UNL1        0.0444
     11 O          62.6074   78.9330   13.8289 O.3     1  UNL1       -0.5029
     12 C          62.5423   80.3538   13.3523 C.ar    1  UNL1        0.1675
     13 C          62.3148   81.4646   14.3343 C.ar    1  UNL1        0.0398
     14 C          62.2497   82.8854   13.8577 C.ar    1  UNL1        0.0033
     15 C          62.4122   83.1954   12.3991 C.ar    1  UNL1        0.0032
     16 C          62.6397   82.0846   11.4171 C.ar    1  UNL1        0.0398
     17 C          62.7048   80.6638   11.8937 C.ar    1  UNL1        0.1675
     18 O          62.9324   79.5530   10.9117 O.3     1  UNL1       -0.5029
     19 H          62.5059   78.7394   14.7400 H       1  UNL1        0.2923
     20 H          63.0339   79.7467   10.0005 H       1  UNL1        0.2923
     21 C          63.0101   89.9260   11.1375 C.ar    1  UNL1       -0.0154
     22 C          63.4182   91.1432   10.3617 C.ar    1  UNL1        0.0167
     23 C          64.2767   92.1907   11.0066 C.ar    1  UNL1        0.0986
     24 N          64.7271   92.0209   12.4272 N.ar    1  UNL1       -0.2423
     25 C          64.3190   90.8037   13.2030 C.ar    1  UNL1        0.0986
     26 C          63.4606   89.7562   12.5582 C.ar    1  UNL1        0.0167
@<TRIPOS>BOND
     1    11    12    1
     2    12    13   ar
     3    13    14   ar
     4    14    15   ar
     5    15     1    1
     6     1     2   ar
     7     2     3   ar
     8     3     4   ar
     9     4     5   ar
    10     5     6   ar
    11     5     7    1
    12     7     8    1
    13     8     9    1
    14     9    10    1
    15    10    21    1
    16    21    22   ar
    17    22    23   ar
    18    23    24   ar
    19    24    25   ar
    20    25    26   ar
    21    15    16   ar
    22    16    17   ar
    23    17    18    1
    24    17    12   ar
    25     6     1   ar
    26    26    21   ar
    27    10     4    1
    28    11    19    1
    29    18    20    1
