@<TRIPOS>MOLECULE
*****
 29 32 0 0 0
SMALL
GASTEIGER

@<TRIPOS>ATOM
      1 C          64.1970   85.3064   15.4551 C.ar    1  UNL1        0.1311
      2 C          64.6693   86.2324   14.3738 C.ar    1  UNL1        0.0339
      3 C          64.4396   87.7095   14.4982 C.ar    1  UNL1        0.0027
      4 C          63.7377   88.2605   15.7038 C.ar    1  UNL1        0.0283
      5 C          63.2654   87.3344   16.7852 C.ar    1  UNL1        0.2196
      6 F          62.5634   87.8854   17.9908 F       1  UNL1       -0.1835
      7 N          63.4951   85.8574   16.6608 N.ar    1  UNL1       -0.2035
      8 N          64.4267   83.8293   15.3309 N.pl3   1  UNL1       -0.3144
      9 H          65.1334   83.3947   15.8609 H       1  UNL1        0.1485
     10 C          63.5796   83.0143   14.3990 C.3     1  UNL1        0.1155
     11 C          61.6119   85.7881   10.4704 C.3     1  UNL1        0.0521
     12 C          62.5546   84.7350   10.9730 C.ar    1  UNL1        0.0591
     13 C          62.5958   84.4011   12.4347 C.ar    1  UNL1        0.0121
     14 C          63.5384   83.3480   12.9372 C.ar    1  UNL1        0.0001
     15 C          64.4398   82.6288   11.9780 C.ar    1  UNL1        0.0180
     16 C          64.3985   82.9627   10.5162 C.ar    1  UNL1        0.0982
     17 N          63.4559   84.0157   10.0137 N.ar    1  UNL1       -0.2482
     18 C          63.5080   89.7377   15.8281 C.3     1  UNL1        0.0582
     19 C          64.2013   90.6856   14.8950 C.ar    1  UNL1        0.0044
     20 C          65.2910   91.6477   15.2648 C.ar    1  UNL1        0.0966
     21 N          65.6898   92.3946   14.0266 N.ar    1  UNL1       -0.2273
     22 C          64.8465   91.8940   12.8915 C.ar    1  UNL1        0.1403
     23 N          64.7974   92.2636   11.4386 N.ar    1  UNL1       -0.3367
     24 C          63.8284   91.5768   10.5224 C.ar    1  UNL1        0.0850
     25 C          62.9085   90.5206   11.0592 C.ar    1  UNL1        0.0747
     26 CL         61.9395   89.8339   10.1429 Cl      1  UNL1       -0.0807
     27 C          62.9575   90.1511   12.5121 C.ar    1  UNL1        0.0156
     28 C          63.9265   90.8378   13.4282 C.ar    1  UNL1        0.0327
     29 H          65.4012   92.9568   11.0863 H       1  UNL1        0.1674
@<TRIPOS>BOND
     1    11    12    1
     2    12    13   ar
     3    13    14   ar
     4    14    10    1
     5    10     8    1
     6     8     1    1
     7     1     2   ar
     8     2     3   ar
     9     3     4   ar
    10     4    18    1
    11    18    19    1
    12    19    20   ar
    13    20    21   ar
    14    21    22   ar
    15    22    23   ar
    16    23    24   ar
    17    24    25   ar
    18    25    26    1
    19    25    27   ar
    20    27    28   ar
    21     4     5   ar
    22     5     6    1
    23     5     7   ar
    24    14    15   ar
    25    15    16   ar
    26    16    17   ar
    27    17    12   ar
    28     7     1   ar
    29    28    19   ar
    30    28    22    1
    31     8     9    1
    32    23    29    1
@<TRIPOS>MOLECULE
*****
 29 32 0 0 0
SMALL
GASTEIGER

@<TRIPOS>ATOM
      1 C          63.4446   83.8217   13.0874 C.ar    1  UNL1        0.1311
      2 C          62.3990   84.8646   12.8249 C.ar    1  UNL1        0.0339
      3 C          62.1168   85.3067   11.4196 C.ar    1  UNL1        0.0027
      4 C          62.8802   84.7058   10.2767 C.ar    1  UNL1        0.0283
      5 C          63.9259   83.6628   10.5392 C.ar    1  UNL1        0.2196
      6 F          64.6893   83.0619    9.3964 F       1  UNL1       -0.1835
      7 N          64.2080   83.2208   11.9445 N.ar    1  UNL1       -0.2035
      8 N          63.7268   83.3796   14.4927 N.pl3   1  UNL1       -0.3144
      9 H          63.3670   82.5241   14.8212 H       1  UNL1        0.1485
     10 C          64.5571   84.2409   15.3975 C.3     1  UNL1        0.1155
     11 C          64.4538   89.3340   14.3732 C.3     1  UNL1        0.0521
     12 C          64.0464   88.1729   15.2311 C.ar    1  UNL1        0.0591
     13 C          64.5055   86.7874   14.8854 C.ar    1  UNL1        0.0121
     14 C          64.0980   85.6264   15.7433 C.ar    1  UNL1        0.0001
     15 C          63.2316   85.8509   16.9470 C.ar    1  UNL1        0.0180
     16 C          62.7725   87.2364   17.2927 C.ar    1  UNL1        0.0982
     17 N          63.1799   88.3974   16.4348 N.ar    1  UNL1       -0.2482
     18 C          62.5980   85.1479    8.8713 C.3     1  UNL1        0.0582
     19 C          61.5200   86.1562    8.6045 C.ar    1  UNL1        0.0044
     20 C          60.3038   85.9421    7.7531 C.ar    1  UNL1        0.0966
     21 N          59.5011   87.2093    7.7646 N.ar    1  UNL1       -0.2273
     22 C          60.2214   88.2064    8.6231 C.ar    1  UNL1        0.1403
     23 N          59.9022   89.6230    8.9992 N.ar    1  UNL1       -0.3367
     24 C          60.8308   90.3887    9.8943 C.ar    1  UNL1        0.0850
     25 C          62.0786   89.7378   10.4134 C.ar    1  UNL1        0.0747
     26 CL         63.0072   90.5036   11.3086 Cl      1  UNL1       -0.0807
     27 C          62.3977   88.3213   10.0373 C.ar    1  UNL1        0.0156
     28 C          61.4691   87.5556    9.1421 C.ar    1  UNL1        0.0327
     29 H          59.0832   90.0502    8.6585 H       1  UNL1        0.1674
@<TRIPOS>BOND
     1    11    12    1
     2    12    13   ar
     3    13    14   ar
     4    14    10    1
     5    10     8    1
     6     8     1    1
     7     1     2   ar
     8     2     3   ar
     9     3     4   ar
    10     4    18    1
    11    18    19    1
    12    19    20   ar
    13    20    21   ar
    14    21    22   ar
    15    22    23   ar
    16    23    24   ar
    17    24    25   ar
    18    25    26    1
    19    25    27   ar
    20    27    28   ar
    21     4     5   ar
    22     5     6    1
    23     5     7   ar
    24    14    15   ar
    25    15    16   ar
    26    16    17   ar
    27    17    12   ar
    28     7     1   ar
    29    28    19   ar
    30    28    22    1
    31     8     9    1
    32    23    29    1
@<TRIPOS>MOLECULE
*****
 29 32 0 0 0
SMALL
GASTEIGER

@<TRIPOS>ATOM
      1 C          63.5097   90.9346   11.8693 C.ar    1  UNL1        0.1311
      2 C          63.6948   89.6890   12.6844 C.ar    1  UNL1        0.0339
      3 C          63.0018   88.4206   12.2835 C.ar    1  UNL1        0.0027
      4 C          62.1236   88.3977   11.0676 C.ar    1  UNL1        0.0283
      5 C          61.9385   89.6433   10.2526 C.ar    1  UNL1        0.2196
      6 F          61.0604   89.6204    9.0367 F       1  UNL1       -0.1835
      7 N          62.6316   90.9117   10.6535 N.ar    1  UNL1       -0.2035
      8 N          64.2027   92.2030   12.2702 N.pl3   1  UNL1       -0.3144
      9 H          63.6742   93.0017   12.4983 H       1  UNL1        0.1485
     10 C          65.7009   92.2547   12.3235 C.3     1  UNL1        0.1155
     11 C          66.8044   96.8559   10.1762 C.3     1  UNL1        0.0521
     12 C          67.0111   95.3719   10.2460 C.ar    1  UNL1        0.0591
     13 C          66.2526   94.5552   11.2499 C.ar    1  UNL1        0.0121
     14 C          66.4594   93.0712   11.3195 C.ar    1  UNL1        0.0001
     15 C          67.4246   92.4038   10.3853 C.ar    1  UNL1        0.0180
     16 C          68.1831   93.2204    9.3814 C.ar    1  UNL1        0.0982
     17 N          67.9763   94.7044    9.3117 N.ar    1  UNL1       -0.2482
     18 C          61.4306   87.1291   10.6667 C.3     1  UNL1        0.0582
     19 C          62.2301   85.9656   10.1600 C.ar    1  UNL1        0.0044
     20 C          62.6057   85.7096    8.7305 C.ar    1  UNL1        0.0966
     21 N          63.4022   84.4395    8.6809 N.ar    1  UNL1       -0.2273
     22 C          63.5188   83.9105   10.0797 C.ar    1  UNL1        0.1403
     23 N          64.1911   82.6919   10.6391 N.ar    1  UNL1       -0.3367
     24 C          64.1389   82.4164   12.1126 C.ar    1  UNL1        0.0850
     25 C          63.4146   83.3596   13.0267 C.ar    1  UNL1        0.0747
     26 CL         63.3625   83.0841   14.5004 Cl      1  UNL1       -0.0807
     27 C          62.7423   84.5782   12.4674 C.ar    1  UNL1        0.0156
     28 C          62.7945   84.8537   10.9938 C.ar    1  UNL1        0.0327
     29 H          64.6665   82.0728   10.0391 H       1  UNL1        0.1674
@<TRIPOS>BOND
     1    11    12    1
     2    12    13   ar
     3    13    14   ar
     4    14    10    1
     5    10     8    1
     6     8     1    1
     7     1     2   ar
     8     2     3   ar
     9     3     4   ar
    10     4    18    1
    11    18    19    1
    12    19    20   ar
    13    20    21   ar
    14    21    22   ar
    15    22    23   ar
    16    23    24   ar
    17    24    25   ar
    18    25    26    1
    19    25    27   ar
    20    27    28   ar
    21     4     5   ar
    22     5     6    1
    23     5     7   ar
    24    14    15   ar
    25    15    16   ar
    26    16    17   ar
    27    17    12   ar
    28     7     1   ar
    29    28    19   ar
    30    28    22    1
    31     8     9    1
    32    23    29    1
@<TRIPOS>MOLECULE
*****
 29 32 0 0 0
SMALL
GASTEIGER

@<TRIPOS>ATOM
      1 C          63.9505   84.9813   15.5672 C.ar    1  UNL1        0.1311
      2 C          64.4318   85.8022   14.4077 C.ar    1  UNL1        0.0339
      3 C          64.3372   87.2984   14.4576 C.ar    1  UNL1        0.0027
      4 C          63.7613   87.9736   15.6670 C.ar    1  UNL1        0.0283
      5 C          63.2800   87.1526   16.8264 C.ar    1  UNL1        0.2196
      6 F          62.7041   87.8278   18.0358 F       1  UNL1       -0.1835
      7 N          63.3746   85.6564   16.7765 N.ar    1  UNL1       -0.2035
      8 N          64.0451   83.4851   15.5173 N.pl3   1  UNL1       -0.3144
      9 H          64.8499   83.0312   15.8570 H       1  UNL1        0.1485
     10 C          62.9134   82.6804   14.9499 C.3     1  UNL1        0.1155
     11 C          64.0057   83.3645    9.9161 C.3     1  UNL1        0.0521
     12 C          63.5515   82.4786   11.0382 C.ar    1  UNL1        0.0591
     13 C          63.4595   83.0224   12.4331 C.ar    1  UNL1        0.0121
     14 C          63.0053   82.1365   13.5551 C.ar    1  UNL1        0.0001
     15 C          62.6431   80.7067   13.2822 C.ar    1  UNL1        0.0180
     16 C          62.7351   80.1629   11.8873 C.ar    1  UNL1        0.0982
     17 N          63.1892   81.0488   10.7653 N.ar    1  UNL1       -0.2482
     18 C          63.6667   89.4698   15.7169 C.3     1  UNL1        0.0582
     19 C          63.8872   90.2772   14.4720 C.ar    1  UNL1        0.0044
     20 C          63.1213   90.1462   13.1890 C.ar    1  UNL1        0.0966
     21 N          63.6731   91.1453   12.2157 N.ar    1  UNL1       -0.2273
     22 C          64.7800   91.8938   12.8973 C.ar    1  UNL1        0.1403
     23 N          65.6845   92.9946   12.4282 N.ar    1  UNL1       -0.3367
     24 C          66.7214   93.5589   13.3537 C.ar    1  UNL1        0.0850
     25 C          66.8537   93.0224   14.7482 C.ar    1  UNL1        0.0747
     26 CL         67.8906   93.5867   15.6737 Cl      1  UNL1       -0.0807
     27 C          65.9492   91.9216   15.2172 C.ar    1  UNL1        0.0156
     28 C          64.9123   91.3573   14.2918 C.ar    1  UNL1        0.0327
     29 H          65.5977   93.3468   11.5130 H       1  UNL1        0.1674
@<TRIPOS>BOND
     1    11    12    1
     2    12    13   ar
     3    13    14   ar
     4    14    10    1
     5    10     8    1
     6     8     1    1
     7     1     2   ar
     8     2     3   ar
     9     3     4   ar
    10     4    18    1
    11    18    19    1
    12    19    20   ar
    13    20    21   ar
    14    21    22   ar
    15    22    23   ar
    16    23    24   ar
    17    24    25   ar
    18    25    26    1
    19    25    27   ar
    20    27    28   ar
    21     4     5   ar
    22     5     6    1
    23     5     7   ar
    24    14    15   ar
    25    15    16   ar
    26    16    17   ar
    27    17    12   ar
    28     7     1   ar
    29    28    19   ar
    30    28    22    1
    31     8     9    1
    32    23    29    1
@<TRIPOS>MOLECULE
*****
 29 32 0 0 0
SMALL
GASTEIGER

@<TRIPOS>ATOM
      1 C          62.2475   89.7891   10.4904 C.ar    1  UNL1        0.1311
      2 C          62.8182   88.9208   11.5722 C.ar    1  UNL1        0.0339
      3 C          62.6313   87.4335   11.5168 C.ar    1  UNL1        0.0027
      4 C          61.8737   86.8146   10.3797 C.ar    1  UNL1        0.0283
      5 C          61.3030   87.6830    9.2979 C.ar    1  UNL1        0.2196
      6 F          60.5455   87.0640    8.1608 F       1  UNL1       -0.1835
      7 N          61.4900   89.1702    9.3533 N.ar    1  UNL1       -0.2035
      8 N          62.4344   91.2764   10.5457 N.pl3   1  UNL1       -0.3144
      9 H          61.7106   91.8511   10.8848 H       1  UNL1        0.1485
     10 C          63.7240   91.8881   10.0842 C.3     1  UNL1        0.1155
     11 C          65.9983   91.6612   14.7507 C.3     1  UNL1        0.0521
     12 C          65.8278   92.3319   13.4199 C.ar    1  UNL1        0.0591
     13 C          64.8611   91.7746   12.4174 C.ar    1  UNL1        0.0121
     14 C          64.6906   92.4454   11.0866 C.ar    1  UNL1        0.0001
     15 C          65.4869   93.6735   10.7583 C.ar    1  UNL1        0.0180
     16 C          66.4535   94.2308   11.7607 C.ar    1  UNL1        0.0982
     17 N          66.6240   93.5600   13.0915 N.ar    1  UNL1       -0.2482
     18 C          61.6869   85.3272   10.3243 C.3     1  UNL1        0.0582
     19 C          62.7744   84.4161   10.8113 C.ar    1  UNL1        0.0044
     20 C          63.7393   83.6561    9.9503 C.ar    1  UNL1        0.0966
     21 N          64.6491   82.8753   10.8517 N.ar    1  UNL1       -0.2273
     22 C          64.2465   83.1527   12.2698 C.ar    1  UNL1        0.1403
     23 N          64.7852   82.6612   13.5805 N.ar    1  UNL1       -0.3367
     24 C          64.1653   83.1219   14.8663 C.ar    1  UNL1        0.0850
     25 C          63.0066   84.0742   14.8414 C.ar    1  UNL1        0.0747
     26 CL         62.3867   84.5350   16.1273 Cl      1  UNL1       -0.0807
     27 C          62.4679   84.5657   13.5306 C.ar    1  UNL1        0.0156
     28 C          63.0878   84.1049   12.2448 C.ar    1  UNL1        0.0327
     29 H          65.5457   82.0362   13.5969 H       1  UNL1        0.1674
@<TRIPOS>BOND
     1    11    12    1
     2    12    13   ar
     3    13    14   ar
     4    14    10    1
     5    10     8    1
     6     8     1    1
     7     1     2   ar
     8     2     3   ar
     9     3     4   ar
    10     4    18    1
    11    18    19    1
    12    19    20   ar
    13    20    21   ar
    14    21    22   ar
    15    22    23   ar
    16    23    24   ar
    17    24    25   ar
    18    25    26    1
    19    25    27   ar
    20    27    28   ar
    21     4     5   ar
    22     5     6    1
    23     5     7   ar
    24    14    15   ar
    25    15    16   ar
    26    16    17   ar
    27    17    12   ar
    28     7     1   ar
    29    28    19   ar
    30    28    22    1
    31     8     9    1
    32    23    29    1
@<TRIPOS>MOLECULE
*****
 29 32 0 0 0
SMALL
GASTEIGER

@<TRIPOS>ATOM
      1 C          63.5524   91.0043   11.5082 C.ar    1  UNL1        0.1311
      2 C          62.5726   90.8649   10.3810 C.ar    1  UNL1        0.0339
      3 C          61.8881   89.5521   10.1403 C.ar    1  UNL1        0.0027
      4 C          62.1834   88.3787   11.0269 C.ar    1  UNL1        0.0283
      5 C          63.1631   88.5181   12.1541 C.ar    1  UNL1        0.2196
      6 F          63.4584   87.3447   13.0406 F       1  UNL1       -0.1835
      7 N          63.8476   89.8309   12.3947 N.ar    1  UNL1       -0.2035
      8 N          64.2369   92.3171   11.7489 N.pl3   1  UNL1       -0.3144
      9 H          63.7421   93.1596   11.6283 H       1  UNL1        0.1485
     10 C          65.6754   92.3463   12.1732 C.3     1  UNL1        0.1155
     11 C          68.9863   93.9045   15.8623 C.3     1  UNL1        0.0521
     12 C          67.6820   93.2773   15.4681 C.ar    1  UNL1        0.0591
     13 C          67.3308   93.1254   14.0177 C.ar    1  UNL1        0.0121
     14 C          66.0265   92.4981   13.6236 C.ar    1  UNL1        0.0001
     15 C          65.0734   92.0227   14.6798 C.ar    1  UNL1        0.0180
     16 C          65.4246   92.1746   16.1302 C.ar    1  UNL1        0.0982
     17 N          66.7289   92.8019   16.5243 N.ar    1  UNL1       -0.2482
     18 C          61.4988   87.0658   10.7862 C.3     1  UNL1        0.0582
     19 C          62.2593   85.9233   10.1810 C.ar    1  UNL1        0.0044
     20 C          62.6015   85.7624    8.7295 C.ar    1  UNL1        0.0966
     21 N          63.3649   84.4807    8.5725 N.ar    1  UNL1       -0.2273
     22 C          63.4944   83.8495    9.9271 C.ar    1  UNL1        0.1403
     23 N          64.1462   82.5780   10.3837 N.ar    1  UNL1       -0.3367
     24 C          64.1147   82.1982   11.8344 C.ar    1  UNL1        0.0850
     25 C          63.4315   83.0897   12.8285 C.ar    1  UNL1        0.0747
     26 CL         63.4000   82.7098   14.2793 Cl      1  UNL1       -0.0807
     27 C          62.7796   84.3612   12.3719 C.ar    1  UNL1        0.0156
     28 C          62.8111   84.7410   10.9212 C.ar    1  UNL1        0.0327
     29 H          64.5946   81.9929    9.7312 H       1  UNL1        0.1674
@<TRIPOS>BOND
     1    11    12    1
     2    12    13   ar
     3    13    14   ar
     4    14    10    1
     5    10     8    1
     6     8     1    1
     7     1     2   ar
     8     2     3   ar
     9     3     4   ar
    10     4    18    1
    11    18    19    1
    12    19    20   ar
    13    20    21   ar
    14    21    22   ar
    15    22    23   ar
    16    23    24   ar
    17    24    25   ar
    18    25    26    1
    19    25    27   ar
    20    27    28   ar
    21     4     5   ar
    22     5     6    1
    23     5     7   ar
    24    14    15   ar
    25    15    16   ar
    26    16    17   ar
    27    17    12   ar
    28     7     1   ar
    29    28    19   ar
    30    28    22    1
    31     8     9    1
    32    23    29    1
@<TRIPOS>MOLECULE
*****
 29 32 0 0 0
SMALL
GASTEIGER

@<TRIPOS>ATOM
      1 C          62.5345   89.6656   12.7622 C.ar    1  UNL1        0.1311
      2 C          63.5086   88.5268   12.8282 C.ar    1  UNL1        0.0339
      3 C          63.2603   87.2805   12.0314 C.ar    1  UNL1        0.0027
      4 C          62.0379   87.1728   11.1687 C.ar    1  UNL1        0.0283
      5 C          61.0638   88.3116   11.1027 C.ar    1  UNL1        0.2196
      6 F          59.8415   88.2040   10.2400 F       1  UNL1       -0.1835
      7 N          61.3122   89.5580   11.8995 N.ar    1  UNL1       -0.2035
      8 N          62.7828   90.9120   13.5589 N.pl3   1  UNL1       -0.3144
      9 H          62.2197   91.7071   13.4173 H       1  UNL1        0.1485
     10 C          63.8890   90.9471   14.5715 C.3     1  UNL1        0.1155
     11 C          68.6555   92.4864   15.9538 C.3     1  UNL1        0.0521
     12 C          67.6013   92.3107   14.9012 C.ar    1  UNL1        0.0591
     13 C          66.2722   91.7167   15.2626 C.ar    1  UNL1        0.0121
     14 C          65.2181   91.5411   14.2100 C.ar    1  UNL1        0.0001
     15 C          65.4930   91.9594   12.7960 C.ar    1  UNL1        0.0180
     16 C          66.8222   92.5533   12.4346 C.ar    1  UNL1        0.0982
     17 N          67.8763   92.7290   13.4872 N.ar    1  UNL1       -0.2482
     18 C          61.7896   85.9264   10.3719 C.3     1  UNL1        0.0582
     19 C          62.7295   84.7630   10.4869 C.ar    1  UNL1        0.0044
     20 C          63.5256   84.1588    9.3684 C.ar    1  UNL1        0.0966
     21 N          64.3264   83.0220    9.9309 N.ar    1  UNL1       -0.2273
     22 C          64.0252   82.9237   11.3971 C.ar    1  UNL1        0.1403
     23 N          64.5222   81.9933   12.4636 N.ar    1  UNL1       -0.3367
     24 C          64.0321   82.1390   13.8737 C.ar    1  UNL1        0.0850
     25 C          63.0452   83.2151   14.2174 C.ar    1  UNL1        0.0747
     26 CL         62.5552   83.3607   15.6276 Cl      1  UNL1       -0.0807
     27 C          62.5483   84.1454   13.1509 C.ar    1  UNL1        0.0156
     28 C          63.0383   83.9997   11.7407 C.ar    1  UNL1        0.0327
     29 H          65.1699   81.2871   12.2380 H       1  UNL1        0.1674
@<TRIPOS>BOND
     1    11    12    1
     2    12    13   ar
     3    13    14   ar
     4    14    10    1
     5    10     8    1
     6     8     1    1
     7     1     2   ar
     8     2     3   ar
     9     3     4   ar
    10     4    18    1
    11    18    19    1
    12    19    20   ar
    13    20    21   ar
    14    21    22   ar
    15    22    23   ar
    16    23    24   ar
    17    24    25   ar
    18    25    26    1
    19    25    27   ar
    20    27    28   ar
    21     4     5   ar
    22     5     6    1
    23     5     7   ar
    24    14    15   ar
    25    15    16   ar
    26    16    17   ar
    27    17    12   ar
    28     7     1   ar
    29    28    19   ar
    30    28    22    1
    31     8     9    1
    32    23    29    1
@<TRIPOS>MOLECULE
*****
 29 32 0 0 0
SMALL
GASTEIGER

@<TRIPOS>ATOM
      1 C          62.3013   87.6138   11.4641 C.ar    1  UNL1        0.1311
      2 C          63.1431   88.1463   12.5856 C.ar    1  UNL1        0.0339
      3 C          63.6568   89.5546   12.5343 C.ar    1  UNL1        0.0027
      4 C          63.3288   90.4304   11.3616 C.ar    1  UNL1        0.0283
      5 C          62.4870   89.8979   10.2401 C.ar    1  UNL1        0.2196
      6 F          62.1589   90.7737    9.0674 F       1  UNL1       -0.1835
      7 N          61.9733   88.4896   10.2914 N.ar    1  UNL1       -0.2035
      8 N          61.7876   86.2054   11.5153 N.pl3   1  UNL1       -0.3144
      9 H          60.8377   86.0348   11.7099 H       1  UNL1        0.1485
     10 C          62.7209   85.0571   11.2700 C.3     1  UNL1        0.1155
     11 C          62.3855   80.2647   13.2500 C.3     1  UNL1        0.0521
     12 C          62.8496   81.6868   13.3614 C.ar    1  UNL1        0.0591
     13 C          62.5532   82.6610   12.2600 C.ar    1  UNL1        0.0121
     14 C          63.0173   84.0830   12.3715 C.ar    1  UNL1        0.0001
     15 C          63.7777   84.5309   13.5844 C.ar    1  UNL1        0.0180
     16 C          64.0740   83.5567   14.6858 C.ar    1  UNL1        0.0982
     17 N          63.6099   82.1347   14.5743 N.ar    1  UNL1       -0.2482
     18 C          63.8426   91.8388   11.3104 C.3     1  UNL1        0.0582
     19 C          65.2648   92.1325   11.6862 C.ar    1  UNL1        0.0044
     20 C          66.4066   92.3262   10.7329 C.ar    1  UNL1        0.0966
     21 N          67.6422   92.5974   11.5388 N.ar    1  UNL1       -0.2273
     22 C          67.2641   92.5714   12.9902 C.ar    1  UNL1        0.1403
     23 N          68.0680   92.7722   14.2405 N.ar    1  UNL1       -0.3367
     24 C          67.4024   92.6857   15.5820 C.ar    1  UNL1        0.0850
     25 C          65.9330   92.3984   15.6730 C.ar    1  UNL1        0.0747
     26 CL         65.2675   92.3119   17.0146 Cl      1  UNL1       -0.0807
     27 C          65.1292   92.1975   14.4227 C.ar    1  UNL1        0.0156
     28 C          65.7947   92.2841   13.0812 C.ar    1  UNL1        0.0327
     29 H          69.0324   92.9608   14.1807 H       1  UNL1        0.1674
@<TRIPOS>BOND
     1    11    12    1
     2    12    13   ar
     3    13    14   ar
     4    14    10    1
     5    10     8    1
     6     8     1    1
     7     1     2   ar
     8     2     3   ar
     9     3     4   ar
    10     4    18    1
    11    18    19    1
    12    19    20   ar
    13    20    21   ar
    14    21    22   ar
    15    22    23   ar
    16    23    24   ar
    17    24    25   ar
    18    25    26    1
    19    25    27   ar
    20    27    28   ar
    21     4     5   ar
    22     5     6    1
    23     5     7   ar
    24    14    15   ar
    25    15    16   ar
    26    16    17   ar
    27    17    12   ar
    28     7     1   ar
    29    28    19   ar
    30    28    22    1
    31     8     9    1
    32    23    29    1
@<TRIPOS>MOLECULE
*****
 29 32 0 0 0
SMALL
GASTEIGER

@<TRIPOS>ATOM
      1 C          62.1784   86.0416   10.3083 C.ar    1  UNL1        0.1311
      2 C          62.8317   86.6275   11.5249 C.ar    1  UNL1        0.0339
      3 C          62.8095   88.1108   11.7472 C.ar    1  UNL1        0.0027
      4 C          62.1341   89.0081   10.7529 C.ar    1  UNL1        0.0283
      5 C          61.4809   88.4223    9.5363 C.ar    1  UNL1        0.2196
      6 F          60.8055   89.3196    8.5421 F       1  UNL1       -0.1835
      7 N          61.5031   86.9390    9.3141 N.ar    1  UNL1       -0.2035
      8 N          62.2006   84.5584   10.0860 N.pl3   1  UNL1       -0.3144
      9 H          61.4736   84.1252    9.5829 H       1  UNL1        0.1485
     10 C          63.3303   83.7351   10.6301 C.3     1  UNL1        0.1155
     11 C          61.1221   80.6693   14.1973 C.3     1  UNL1        0.0521
     12 C          62.1644   81.6792   13.8181 C.ar    1  UNL1        0.0591
     13 C          62.2262   82.2023   12.4137 C.ar    1  UNL1        0.0121
     14 C          63.2686   83.2121   12.0346 C.ar    1  UNL1        0.0001
     15 C          64.2491   83.6990   13.0600 C.ar    1  UNL1        0.0180
     16 C          64.1873   83.1759   14.4645 C.ar    1  UNL1        0.0982
     17 N          63.1450   82.1661   14.8436 N.ar    1  UNL1       -0.2482
     18 C          62.1119   90.4915   10.9752 C.3     1  UNL1        0.0582
     19 C          63.3550   91.2013   11.4235 C.ar    1  UNL1        0.0044
     20 C          64.2968   91.9700   10.5448 C.ar    1  UNL1        0.0966
     21 N          65.3983   92.5108   11.4074 N.ar    1  UNL1       -0.2273
     22 C          65.1373   92.0765   12.8192 C.ar    1  UNL1        0.1403
     23 N          65.8864   92.3133   14.0969 N.ar    1  UNL1       -0.3367
     24 C          65.3726   91.7409   15.3846 C.ar    1  UNL1        0.0850
     25 C          64.1097   90.9315   15.3946 C.ar    1  UNL1        0.0747
     26 CL         63.5959   90.3591   16.6824 Cl      1  UNL1       -0.0807
     27 C          63.3606   90.6947   14.1168 C.ar    1  UNL1        0.0156
     28 C          63.8744   91.2671   12.8291 C.ar    1  UNL1        0.0327
     29 H          66.7153   92.8445   14.0904 H       1  UNL1        0.1674
@<TRIPOS>BOND
     1    11    12    1
     2    12    13   ar
     3    13    14   ar
     4    14    10    1
     5    10     8    1
     6     8     1    1
     7     1     2   ar
     8     2     3   ar
     9     3     4   ar
    10     4    18    1
    11    18    19    1
    12    19    20   ar
    13    20    21   ar
    14    21    22   ar
    15    22    23   ar
    16    23    24   ar
    17    24    25   ar
    18    25    26    1
    19    25    27   ar
    20    27    28   ar
    21     4     5   ar
    22     5     6    1
    23     5     7   ar
    24    14    15   ar
    25    15    16   ar
    26    16    17   ar
    27    17    12   ar
    28     7     1   ar
    29    28    19   ar
    30    28    22    1
    31     8     9    1
    32    23    29    1
