@<TRIPOS>MOLECULE
*****
 35 39 0 0 0
SMALL
GASTEIGER

@<TRIPOS>ATOM
      1 N          62.9940   90.6869   12.2863 N.3     1  UNL1       -0.2679
      2 C          64.2261   91.5175   12.0810 C.3     1  UNL1        0.0978
      3 C          64.6529   91.8959   10.6936 C.3     1  UNL1        0.0224
      4 C          65.8850   92.7266   10.4883 C.3     1  UNL1        0.0065
      5 C          66.6902   93.1787   11.6703 C.3     1  UNL1        0.0277
      6 C          66.2634   92.8003   13.0576 C.ar    1  UNL1       -0.0073
      7 C          67.0686   93.2525   14.2396 C.ar    1  UNL1       -0.0015
      8 C          66.6418   92.8740   15.6269 C.ar    1  UNL1        0.0203
      9 C          65.4098   92.0434   15.8323 C.ar    1  UNL1        0.0985
     10 N          64.6046   91.5913   14.6503 N.ar    1  UNL1       -0.2471
     11 C          65.0314   91.9697   13.2630 C.ar    1  UNL1        0.0695
     12 C          61.8106   90.8641   11.3817 C.3     1  UNL1        0.0886
     13 C          61.1392   85.2958    7.4076 C.ar    1  UNL1       -0.0003
     14 C          62.4459   85.2214    8.1405 C.ar    1  UNL1       -0.0003
     15 C          62.8415   86.3202    9.0819 C.ar    1  UNL1       -0.0045
     16 C          61.9305   87.4934    9.2904 C.ar    1  UNL1       -0.0234
     17 C          60.6238   87.5678    8.5576 C.ar    1  UNL1       -0.0103
     18 C          60.2282   86.4690    7.6162 C.ar    1  UNL1       -0.0032
     19 C          59.7127   88.7411    8.7661 C.3     1  UNL1        0.0953
     20 N          60.1083   89.8399    9.7074 N.3     1  UNL1       -0.2934
     21 C          61.4150   89.7654   10.4403 C.3     1  UNL1        0.0748
     22 C          62.3261   88.5922   10.2318 C.3     1  UNL1        0.0432
     23 H          59.3765   89.8986   10.4155 H       1  UNL1        0.1236
     24 C          62.9453   89.6791   13.3962 C.3     1  UNL1        0.0725
     25 C          63.8570   88.4883   13.3685 C.3     1  UNL1        0.0188
     26 C          64.3505   87.8915   14.6532 C.3     1  UNL1        0.0185
     27 C          64.4528   86.4019   14.7976 C.3     1  UNL1        0.0686
     28 N          63.2188   85.5859   15.0456 N.3     1  UNL1       -0.2984
     29 H          62.4243   86.2194   14.9574 H       1  UNL1        0.1232
     30 C          62.9212   84.3953   14.1833 C.3     1  UNL1        0.0590
     31 C          63.0494   84.4982   12.6923 C.3     1  UNL1        0.0478
     32 C          62.7517   83.3075   11.8299 C.3     1  UNL1        0.1435
     33 O          62.3258   82.0139   12.4585 O.3     1  UNL1       -0.3537
     34 C          62.1976   81.9110   13.9495 C.3     1  UNL1        0.1435
     35 C          62.4953   83.1016   14.8119 C.3     1  UNL1        0.0478
@<TRIPOS>BOND
     1    13    14   ar
     2    14    15   ar
     3    15    16   ar
     4    16    17   ar
     5    17    18   ar
     6    17    19    1
     7    19    20    1
     8    20    21    1
     9    21    12    1
    10    12     1    1
    11     1    24    1
    12    24    25    1
    13    25    26    1
    14    26    27    1
    15    27    28    1
    16    28    30    1
    17    30    31    1
    18    31    32    1
    19    32    33    1
    20    33    34    1
    21    34    35    1
    22     2     1    1
    23     2     3    1
    24     3     4    1
    25     4     5    1
    26     5     6    1
    27     6     7   ar
    28     7     8   ar
    29     8     9   ar
    30     9    10   ar
    31    10    11   ar
    32    21    22    1
    33    18    13   ar
    34    35    30    1
    35    11     2    1
    36    22    16    1
    37    11     6   ar
    38    20    23    1
    39    28    29    1
@<TRIPOS>MOLECULE
*****
 35 39 0 0 0
SMALL
GASTEIGER

@<TRIPOS>ATOM
      1 N          63.3569   88.8763   13.4592 N.3     1  UNL1       -0.2679
      2 C          62.8873   89.2429   12.0826 C.3     1  UNL1        0.0978
      3 C          63.0622   90.6450   11.5792 C.3     1  UNL1        0.0224
      4 C          62.5926   91.0117   10.2025 C.3     1  UNL1        0.0065
      5 C          61.9481   89.9762    9.3294 C.3     1  UNL1        0.0277
      6 C          61.7733   88.5740    9.8328 C.ar    1  UNL1       -0.0073
      7 C          61.1288   87.5386    8.9597 C.ar    1  UNL1       -0.0015
      8 C          60.9539   86.1364    9.4632 C.ar    1  UNL1        0.0203
      9 C          61.4235   85.7698   10.8397 C.ar    1  UNL1        0.0985
     10 N          62.0680   86.8053   11.7129 N.ar    1  UNL1       -0.2471
     11 C          62.2428   88.2074   11.2094 C.ar    1  UNL1        0.0695
     12 C          63.1553   89.8301   14.5993 C.3     1  UNL1        0.0886
     13 C          68.9240   93.4426   15.5600 C.ar    1  UNL1       -0.0003
     14 C          69.0972   92.5486   14.3680 C.ar    1  UNL1       -0.0003
     15 C          67.9782   91.6473   13.9375 C.ar    1  UNL1       -0.0045
     16 C          66.6858   91.6400   14.6989 C.ar    1  UNL1       -0.0234
     17 C          66.5126   92.5340   15.8909 C.ar    1  UNL1       -0.0103
     18 C          67.6317   93.4353   16.3214 C.ar    1  UNL1       -0.0032
     19 C          65.2202   92.5267   16.6523 C.3     1  UNL1        0.0953
     20 N          64.1011   91.6254   16.2218 N.3     1  UNL1       -0.2934
     21 C          64.2744   90.7314   15.0298 C.3     1  UNL1        0.0748
     22 C          65.5668   90.7387   14.2684 C.3     1  UNL1        0.0432
     23 H          63.2991   92.2246   16.0264 H       1  UNL1        0.1236
     24 C          64.0280   87.5558   13.6959 C.3     1  UNL1        0.0725
     25 C          64.2894   87.0877   15.0967 C.3     1  UNL1        0.0188
     26 C          64.4404   85.6229   15.3822 C.3     1  UNL1        0.0185
     27 C          63.2333   84.7938   15.7070 C.3     1  UNL1        0.0686
     28 N          62.2625   84.4260   14.6242 N.3     1  UNL1       -0.2984
     29 H          62.2566   85.1993   13.9590 H       1  UNL1        0.1232
     30 C          62.4671   83.1715   13.8279 C.3     1  UNL1        0.0590
     31 C          63.2735   83.2087   12.5637 C.3     1  UNL1        0.0478
     32 C          63.4781   81.9541   11.7673 C.3     1  UNL1        0.1435
     33 O          62.8762   80.6623   12.2352 O.3     1  UNL1       -0.3537
     34 C          62.0697   80.6251   13.4994 C.3     1  UNL1        0.1435
     35 C          61.8651   81.8797   14.2957 C.3     1  UNL1        0.0478
@<TRIPOS>BOND
     1    13    14   ar
     2    14    15   ar
     3    15    16   ar
     4    16    17   ar
     5    17    18   ar
     6    17    19    1
     7    19    20    1
     8    20    21    1
     9    21    12    1
    10    12     1    1
    11     1    24    1
    12    24    25    1
    13    25    26    1
    14    26    27    1
    15    27    28    1
    16    28    30    1
    17    30    31    1
    18    31    32    1
    19    32    33    1
    20    33    34    1
    21    34    35    1
    22     2     1    1
    23     2     3    1
    24     3     4    1
    25     4     5    1
    26     5     6    1
    27     6     7   ar
    28     7     8   ar
    29     8     9   ar
    30     9    10   ar
    31    10    11   ar
    32    21    22    1
    33    18    13   ar
    34    35    30    1
    35    11     2    1
    36    22    16    1
    37    11     6   ar
    38    20    23    1
    39    28    29    1
@<TRIPOS>MOLECULE
*****
 35 39 0 0 0
SMALL
GASTEIGER

@<TRIPOS>ATOM
      1 N          63.3218   88.9213   13.9656 N.3     1  UNL1       -0.2679
      2 C          63.1962   89.6436   12.6569 C.3     1  UNL1        0.0978
      3 C          64.0090   90.8779   12.4006 C.3     1  UNL1        0.0224
      4 C          63.8834   91.6002   11.0919 C.3     1  UNL1        0.0065
      5 C          62.9451   91.0881   10.0396 C.3     1  UNL1        0.0277
      6 C          62.1323   89.8538   10.2960 C.ar    1  UNL1       -0.0073
      7 C          61.1940   89.3417    9.2437 C.ar    1  UNL1       -0.0015
      8 C          60.3812   88.1073    9.5001 C.ar    1  UNL1        0.0203
      9 C          60.5068   87.3850   10.8087 C.ar    1  UNL1        0.0985
     10 N          61.4451   87.8971   11.8610 N.ar    1  UNL1       -0.2471
     11 C          62.2579   89.1315   11.6046 C.ar    1  UNL1        0.0695
     12 C          64.2681   87.7648   14.0962 C.3     1  UNL1        0.0886
     13 C          62.0137   81.3150   13.3425 C.ar    1  UNL1       -0.0003
     14 C          62.4305   81.8490   12.0042 C.ar    1  UNL1       -0.0003
     15 C          62.9648   83.2457   11.8873 C.ar    1  UNL1       -0.0045
     16 C          63.0822   84.1085   13.1087 C.ar    1  UNL1       -0.0234
     17 C          62.6654   83.5745   14.4469 C.ar    1  UNL1       -0.0103
     18 C          62.1312   82.1778   14.5639 C.ar    1  UNL1       -0.0032
     19 C          62.7828   84.4373   15.6684 C.3     1  UNL1        0.0953
     20 N          63.3171   85.8341   15.5515 N.3     1  UNL1       -0.2934
     21 C          63.7339   86.3680   14.2131 C.3     1  UNL1        0.0748
     22 C          63.6165   85.5053   12.9917 C.3     1  UNL1        0.0432
     23 H          64.1355   85.8880   16.1579 H       1  UNL1        0.1236
     24 C          62.5010   89.3554   15.1436 C.3     1  UNL1        0.0725
     25 C          63.1344   89.4674   16.4986 C.3     1  UNL1        0.0188
     26 C          63.8160   90.7402   16.9050 C.3     1  UNL1        0.0185
     27 C          64.2029   91.7491   15.8645 C.3     1  UNL1        0.0686
     28 N          65.3012   92.7317   16.1443 N.3     1  UNL1       -0.2984
     29 H          65.4986   92.6760   17.1435 H       1  UNL1        0.1232
     30 C          66.6173   92.6074   15.4355 C.3     1  UNL1        0.0590
     31 C          66.6880   91.9313   14.0984 C.3     1  UNL1        0.0478
     32 C          68.0041   91.8070   13.3894 C.3     1  UNL1        0.1435
     33 O          69.2494   92.3588   14.0177 O.3     1  UNL1       -0.3537
     34 C          69.1787   93.0348   15.3549 C.3     1  UNL1        0.1435
     35 C          67.8626   93.1591   16.0637 C.3     1  UNL1        0.0478
@<TRIPOS>BOND
     1    13    14   ar
     2    14    15   ar
     3    15    16   ar
     4    16    17   ar
     5    17    18   ar
     6    17    19    1
     7    19    20    1
     8    20    21    1
     9    21    12    1
    10    12     1    1
    11     1    24    1
    12    24    25    1
    13    25    26    1
    14    26    27    1
    15    27    28    1
    16    28    30    1
    17    30    31    1
    18    31    32    1
    19    32    33    1
    20    33    34    1
    21    34    35    1
    22     2     1    1
    23     2     3    1
    24     3     4    1
    25     4     5    1
    26     5     6    1
    27     6     7   ar
    28     7     8   ar
    29     8     9   ar
    30     9    10   ar
    31    10    11   ar
    32    21    22    1
    33    18    13   ar
    34    35    30    1
    35    11     2    1
    36    22    16    1
    37    11     6   ar
    38    20    23    1
    39    28    29    1
@<TRIPOS>MOLECULE
*****
 35 39 0 0 0
SMALL
GASTEIGER

@<TRIPOS>ATOM
      1 N          63.9097   89.9049   13.5732 N.3     1  UNL1       -0.2679
      2 C          64.7842   91.0819   13.8893 C.3     1  UNL1        0.0978
      3 C          65.2744   91.2971   15.2905 C.3     1  UNL1        0.0224
      4 C          66.1490   92.4741   15.6067 C.3     1  UNL1        0.0065
      5 C          66.5333   93.4358   14.5216 C.3     1  UNL1        0.0277
      6 C          66.0431   93.2206   13.1204 C.ar    1  UNL1       -0.0073
      7 C          66.4275   94.1822   12.0353 C.ar    1  UNL1       -0.0015
      8 C          65.9373   93.9670   10.6341 C.ar    1  UNL1        0.0203
      9 C          65.0627   92.7901   10.3180 C.ar    1  UNL1        0.0985
     10 N          64.6784   91.8284   11.4030 N.ar    1  UNL1       -0.2471
     11 C          65.1686   92.0436   12.8042 C.ar    1  UNL1        0.0695
     12 C          62.5928   90.1123   12.8854 C.3     1  UNL1        0.0886
     13 C          59.8426   86.6250    7.6390 C.ar    1  UNL1       -0.0003
     14 C          59.4624   88.0711    7.5203 C.ar    1  UNL1       -0.0003
     15 C          59.9365   89.0578    8.5459 C.ar    1  UNL1       -0.0045
     16 C          60.7906   88.5984    9.6901 C.ar    1  UNL1       -0.0234
     17 C          61.1708   87.1522    9.8088 C.ar    1  UNL1       -0.0103
     18 C          60.6967   86.1655    8.7832 C.ar    1  UNL1       -0.0032
     19 C          62.0250   86.6927   10.9530 C.3     1  UNL1        0.0953
     20 N          62.4990   87.6794   11.9786 N.3     1  UNL1       -0.2934
     21 C          62.1188   89.1256   11.8598 C.3     1  UNL1        0.0748
     22 C          61.2647   89.5850   10.7156 C.3     1  UNL1        0.0432
     23 H          63.5183   87.6416   11.9745 H       1  UNL1        0.1236
     24 C          64.3519   88.5206   13.9448 C.3     1  UNL1        0.0725
     25 C          64.0059   87.9591   15.2919 C.3     1  UNL1        0.0188
     26 C          64.1468   86.4882   15.5501 C.3     1  UNL1        0.0185
     27 C          64.1268   85.5203   14.4042 C.3     1  UNL1        0.0686
     28 N          62.8209   84.9802   13.9014 N.3     1  UNL1       -0.2984
     29 H          62.5591   85.5466   13.0946 H       1  UNL1        0.1232
     30 C          62.7166   83.5457   13.4756 C.3     1  UNL1        0.0590
     31 C          62.2376   82.5080   14.4470 C.3     1  UNL1        0.0478
     32 C          62.1334   81.0735   14.0212 C.3     1  UNL1        0.1435
     33 O          62.5081   80.6767   12.6240 O.3     1  UNL1       -0.3537
     34 C          62.9871   81.7145   11.6526 C.3     1  UNL1        0.1435
     35 C          63.0914   83.1490   12.0784 C.3     1  UNL1        0.0478
@<TRIPOS>BOND
     1    13    14   ar
     2    14    15   ar
     3    15    16   ar
     4    16    17   ar
     5    17    18   ar
     6    17    19    1
     7    19    20    1
     8    20    21    1
     9    21    12    1
    10    12     1    1
    11     1    24    1
    12    24    25    1
    13    25    26    1
    14    26    27    1
    15    27    28    1
    16    28    30    1
    17    30    31    1
    18    31    32    1
    19    32    33    1
    20    33    34    1
    21    34    35    1
    22     2     1    1
    23     2     3    1
    24     3     4    1
    25     4     5    1
    26     5     6    1
    27     6     7   ar
    28     7     8   ar
    29     8     9   ar
    30     9    10   ar
    31    10    11   ar
    32    21    22    1
    33    18    13   ar
    34    35    30    1
    35    11     2    1
    36    22    16    1
    37    11     6   ar
    38    20    23    1
    39    28    29    1
@<TRIPOS>MOLECULE
*****
 35 39 0 0 0
SMALL
GASTEIGER

@<TRIPOS>ATOM
      1 N          63.6058   89.6761   13.4414 N.3     1  UNL1       -0.2679
      2 C          64.2221   90.8552   12.7487 C.3     1  UNL1        0.0978
      3 C          63.8617   91.1615   11.3252 C.3     1  UNL1        0.0224
      4 C          64.4780   92.3407   10.6326 C.3     1  UNL1        0.0065
      5 C          65.4546   93.2136   11.3634 C.3     1  UNL1        0.0277
      6 C          65.8149   92.9074   12.7870 C.ar    1  UNL1       -0.0073
      7 C          66.7915   93.7804   13.5178 C.ar    1  UNL1       -0.0015
      8 C          67.1518   93.4742   14.9414 C.ar    1  UNL1        0.0203
      9 C          66.5356   92.2950   15.6340 C.ar    1  UNL1        0.0985
     10 N          65.5590   91.4221   14.9031 N.ar    1  UNL1       -0.2471
     11 C          65.1987   91.7283   13.4796 C.ar    1  UNL1        0.0695
     12 C          63.4773   88.3663   12.7215 C.3     1  UNL1        0.0886
     13 C          59.2798   86.5744    7.5816 C.ar    1  UNL1       -0.0003
     14 C          60.5406   85.7670    7.4900 C.ar    1  UNL1       -0.0003
     15 C          61.6322   85.9639    8.4997 C.ar    1  UNL1       -0.0045
     16 C          61.4631   86.9682    9.6009 C.ar    1  UNL1       -0.0234
     17 C          60.2023   87.7756    9.6925 C.ar    1  UNL1       -0.0103
     18 C          59.1106   87.5787    8.6828 C.ar    1  UNL1       -0.0032
     19 C          60.0331   88.7800   10.7937 C.3     1  UNL1        0.0953
     20 N          61.1248   88.9769   11.8034 N.3     1  UNL1       -0.2934
     21 C          62.3857   88.1694   11.7118 C.3     1  UNL1        0.0748
     22 C          62.5548   87.1651   10.6106 C.3     1  UNL1        0.0432
     23 H          60.7177   88.7844   12.7186 H       1  UNL1        0.1236
     24 C          63.1181   89.8066   14.8538 C.3     1  UNL1        0.0725
     25 C          63.6394   88.8841   15.9155 C.3     1  UNL1        0.0188
     26 C          62.7047   88.3210   16.9447 C.3     1  UNL1        0.0185
     27 C          62.9032   86.9239   17.4536 C.3     1  UNL1        0.0686
     28 N          62.1829   85.7797   16.8041 N.3     1  UNL1       -0.2984
     29 H          61.3657   86.1731   16.3373 H       1  UNL1        0.1232
     30 C          62.8892   84.9254   15.7936 C.3     1  UNL1        0.0590
     31 C          62.2367   83.6762   15.2803 C.3     1  UNL1        0.0478
     32 C          62.9431   82.8218   14.2698 C.3     1  UNL1        0.1435
     33 O          64.3020   83.2167   13.7726 O.3     1  UNL1       -0.3537
     34 C          64.9546   84.4660   14.2859 C.3     1  UNL1        0.1435
     35 C          64.2482   85.3203   15.2964 C.3     1  UNL1        0.0478
@<TRIPOS>BOND
     1    13    14   ar
     2    14    15   ar
     3    15    16   ar
     4    16    17   ar
     5    17    18   ar
     6    17    19    1
     7    19    20    1
     8    20    21    1
     9    21    12    1
    10    12     1    1
    11     1    24    1
    12    24    25    1
    13    25    26    1
    14    26    27    1
    15    27    28    1
    16    28    30    1
    17    30    31    1
    18    31    32    1
    19    32    33    1
    20    33    34    1
    21    34    35    1
    22     2     1    1
    23     2     3    1
    24     3     4    1
    25     4     5    1
    26     5     6    1
    27     6     7   ar
    28     7     8   ar
    29     8     9   ar
    30     9    10   ar
    31    10    11   ar
    32    21    22    1
    33    18    13   ar
    34    35    30    1
    35    11     2    1
    36    22    16    1
    37    11     6   ar
    38    20    23    1
    39    28    29    1
@<TRIPOS>MOLECULE
*****
 35 39 0 0 0
SMALL
GASTEIGER

@<TRIPOS>ATOM
      1 N          63.1957   88.9503   12.9705 N.3     1  UNL1       -0.2679
      2 C          63.6439   87.6106   13.4747 C.3     1  UNL1        0.0978
      3 C          64.4940   87.5192   14.7072 C.3     1  UNL1        0.0224
      4 C          64.9423   86.1794   15.2114 C.3     1  UNL1        0.0065
      5 C          64.5404   84.9311   14.4831 C.3     1  UNL1        0.0277
      6 C          63.6904   85.0226   13.2507 C.ar    1  UNL1       -0.0073
      7 C          63.2885   83.7744   12.5224 C.ar    1  UNL1       -0.0015
      8 C          62.4384   83.8658   11.2899 C.ar    1  UNL1        0.0203
      9 C          61.9902   85.2055   10.7857 C.ar    1  UNL1        0.0985
     10 N          62.3920   86.4537   11.5140 N.ar    1  UNL1       -0.2471
     11 C          63.2421   86.3623   12.7464 C.ar    1  UNL1        0.0695
     12 C          62.9113   90.0596   13.9394 C.3     1  UNL1        0.0886
     13 C          68.7698   93.1919   15.7044 C.ar    1  UNL1       -0.0003
     14 C          68.9654   92.4864   14.3952 C.ar    1  UNL1       -0.0003
     15 C          67.8328   91.7188   13.7804 C.ar    1  UNL1       -0.0045
     16 C          66.5046   91.6568   14.4747 C.ar    1  UNL1       -0.0234
     17 C          66.3091   92.3623   15.7839 C.ar    1  UNL1       -0.0103
     18 C          67.4417   93.1298   16.3987 C.ar    1  UNL1       -0.0032
     19 C          64.9809   92.3002   16.4783 C.3     1  UNL1        0.0953
     20 N          63.8483   91.5327   15.8635 N.3     1  UNL1       -0.2934
     21 C          64.0439   90.8271   14.5542 C.3     1  UNL1        0.0748
     22 C          65.3720   90.8892   13.8599 C.3     1  UNL1        0.0432
     23 H          63.0827   92.1934   15.7304 H       1  UNL1        0.1236
     24 C          63.0319   89.1808   11.4974 C.3     1  UNL1        0.0725
     25 C          62.3639   90.4296   11.0034 C.3     1  UNL1        0.0188
     26 C          63.1815   91.5197   10.3763 C.3     1  UNL1        0.0185
     27 C          64.5684   91.7985   10.8752 C.3     1  UNL1        0.0686
     28 N          64.9341   93.1756   11.3442 N.3     1  UNL1       -0.2984
     29 H          65.3275   93.0732   12.2797 H       1  UNL1        0.1232
     30 C          65.9040   94.0038   10.5548 C.3     1  UNL1        0.0590
     31 C          67.0594   93.3466    9.8599 C.3     1  UNL1        0.0478
     32 C          68.0294   94.1749    9.0704 C.3     1  UNL1        0.1435
     33 O          67.8439   95.6604    8.9760 O.3     1  UNL1       -0.3537
     34 C          66.6884   96.3176    9.6710 C.3     1  UNL1        0.1435
     35 C          65.7185   95.4893   10.4604 C.3     1  UNL1        0.0478
@<TRIPOS>BOND
     1    13    14   ar
     2    14    15   ar
     3    15    16   ar
     4    16    17   ar
     5    17    18   ar
     6    17    19    1
     7    19    20    1
     8    20    21    1
     9    21    12    1
    10    12     1    1
    11     1    24    1
    12    24    25    1
    13    25    26    1
    14    26    27    1
    15    27    28    1
    16    28    30    1
    17    30    31    1
    18    31    32    1
    19    32    33    1
    20    33    34    1
    21    34    35    1
    22     2     1    1
    23     2     3    1
    24     3     4    1
    25     4     5    1
    26     5     6    1
    27     6     7   ar
    28     7     8   ar
    29     8     9   ar
    30     9    10   ar
    31    10    11   ar
    32    21    22    1
    33    18    13   ar
    34    35    30    1
    35    11     2    1
    36    22    16    1
    37    11     6   ar
    38    20    23    1
    39    28    29    1
@<TRIPOS>MOLECULE
*****
 35 39 0 0 0
SMALL
GASTEIGER

@<TRIPOS>ATOM
      1 N          63.4276   88.2220   13.2574 N.3     1  UNL1       -0.2679
      2 C          62.7868   87.4254   12.1598 C.3     1  UNL1        0.0978
      3 C          63.0171   85.9457   12.0743 C.3     1  UNL1        0.0224
      4 C          62.3763   85.1491   10.9766 C.3     1  UNL1        0.0065
      5 C          61.5052   85.8323    9.9644 C.3     1  UNL1        0.0277
      6 C          61.2749   87.3120   10.0499 C.ar    1  UNL1       -0.0073
      7 C          60.4038   87.9952    9.0378 C.ar    1  UNL1       -0.0015
      8 C          60.1735   89.4749    9.1233 C.ar    1  UNL1        0.0203
      9 C          60.8143   90.2715   10.2210 C.ar    1  UNL1        0.0985
     10 N          61.6854   89.5883   11.2331 N.ar    1  UNL1       -0.2471
     11 C          61.9157   88.1086   11.1476 C.ar    1  UNL1        0.0695
     12 C          63.2408   89.7094   13.3120 C.3     1  UNL1        0.0886
     13 C          68.5055   93.3264   15.8516 C.ar    1  UNL1       -0.0003
     14 C          68.9235   92.6936   14.5575 C.ar    1  UNL1       -0.0003
     15 C          67.9541   91.8436   13.7907 C.ar    1  UNL1       -0.0045
     16 C          66.5668   91.6264   14.3181 C.ar    1  UNL1       -0.0234
     17 C          66.1488   92.2593   15.6122 C.ar    1  UNL1       -0.0103
     18 C          67.1182   93.1092   16.3790 C.ar    1  UNL1       -0.0032
     19 C          64.7615   92.0421   16.1397 C.3     1  UNL1        0.0953
     20 N          63.7921   91.1922   15.3729 N.3     1  UNL1       -0.2934
     21 C          64.2101   90.5593   14.0787 C.3     1  UNL1        0.0748
     22 C          65.5974   90.7765   13.5514 C.3     1  UNL1        0.0432
     23 H          62.9847   91.7801   15.1660 H       1  UNL1        0.1236
     24 C          64.2552   87.5313   14.3004 C.3     1  UNL1        0.0725
     25 C          63.7855   87.4901   15.7244 C.3     1  UNL1        0.0188
     26 C          63.5192   86.1718   16.3885 C.3     1  UNL1        0.0185
     27 C          63.7249   84.8944   15.6293 C.3     1  UNL1        0.0686
     28 N          62.5553   84.0058   15.3256 N.3     1  UNL1       -0.2984
     29 H          61.8267   84.6020   14.9331 H       1  UNL1        0.1232
     30 C          62.7178   82.8464   14.3880 C.3     1  UNL1        0.0590
     31 C          61.7275   81.7201   14.4093 C.3     1  UNL1        0.0478
     32 C          61.8900   80.5605   13.4716 C.3     1  UNL1        0.1435
     33 O          63.0429   80.5274   12.5126 O.3     1  UNL1       -0.3537
     34 C          64.0333   81.6538   12.4913 C.3     1  UNL1        0.1435
     35 C          63.8708   82.8132   13.4290 C.3     1  UNL1        0.0478
@<TRIPOS>BOND
     1    13    14   ar
     2    14    15   ar
     3    15    16   ar
     4    16    17   ar
     5    17    18   ar
     6    17    19    1
     7    19    20    1
     8    20    21    1
     9    21    12    1
    10    12     1    1
    11     1    24    1
    12    24    25    1
    13    25    26    1
    14    26    27    1
    15    27    28    1
    16    28    30    1
    17    30    31    1
    18    31    32    1
    19    32    33    1
    20    33    34    1
    21    34    35    1
    22     2     1    1
    23     2     3    1
    24     3     4    1
    25     4     5    1
    26     5     6    1
    27     6     7   ar
    28     7     8   ar
    29     8     9   ar
    30     9    10   ar
    31    10    11   ar
    32    21    22    1
    33    18    13   ar
    34    35    30    1
    35    11     2    1
    36    22    16    1
    37    11     6   ar
    38    20    23    1
    39    28    29    1
@<TRIPOS>MOLECULE
*****
 35 39 0 0 0
SMALL
GASTEIGER

@<TRIPOS>ATOM
      1 N          63.4536   90.4861   11.8581 N.3     1  UNL1       -0.2679
      2 C          64.4475   91.6079   11.7974 C.3     1  UNL1        0.0978
      3 C          64.7590   92.2638   10.4849 C.3     1  UNL1        0.0224
      4 C          65.7530   93.3857   10.4243 C.3     1  UNL1        0.0065
      5 C          66.4353   93.8516   11.6762 C.3     1  UNL1        0.0277
      6 C          66.1238   93.1957   12.9887 C.ar    1  UNL1       -0.0073
      7 C          66.8061   93.6616   14.2406 C.ar    1  UNL1       -0.0015
      8 C          66.4946   93.0058   15.5531 C.ar    1  UNL1        0.0203
      9 C          65.5007   91.8840   15.6138 C.ar    1  UNL1        0.0985
     10 N          64.8184   91.4180   14.3619 N.ar    1  UNL1       -0.2471
     11 C          65.1299   92.0739   13.0494 C.ar    1  UNL1        0.0695
     12 C          63.0833   89.8828   13.1806 C.3     1  UNL1        0.0886
     13 C          64.1592   83.1023   13.5228 C.ar    1  UNL1       -0.0003
     14 C          63.3301   83.4074   12.3106 C.ar    1  UNL1       -0.0003
     15 C          62.9491   84.8245   11.9997 C.ar    1  UNL1       -0.0045
     16 C          63.3972   85.9365   12.9010 C.ar    1  UNL1       -0.0234
     17 C          64.2263   85.6315   14.1132 C.ar    1  UNL1       -0.0103
     18 C          64.6073   84.2144   14.4241 C.ar    1  UNL1       -0.0032
     19 C          64.6745   86.7436   15.0146 C.3     1  UNL1        0.0953
     20 N          64.2935   88.1607   14.7038 N.3     1  UNL1       -0.2934
     21 C          63.4643   88.4657   13.4915 C.3     1  UNL1        0.0748
     22 C          63.0162   87.3537   12.5902 C.3     1  UNL1        0.0432
     23 H          65.1631   88.6846   14.6051 H       1  UNL1        0.1236
     24 C          62.8300   89.9676   10.5963 C.3     1  UNL1        0.0725
     25 C          61.4535   90.4140   10.2015 C.3     1  UNL1        0.0188
     26 C          60.2501   89.6930   10.7326 C.3     1  UNL1        0.0185
     27 C          60.1838   88.1958   10.6681 C.3     1  UNL1        0.0686
     28 N          59.7494   87.5182    9.4023 N.3     1  UNL1       -0.2984
     29 H          59.4844   88.2558    8.7494 H       1  UNL1        0.1232
     30 C          60.6976   86.6139    8.6722 C.3     1  UNL1        0.0590
     31 C          60.2250   85.8381    7.4786 C.3     1  UNL1        0.0478
     32 C          61.1732   84.9337    6.7484 C.3     1  UNL1        0.1435
     33 O          62.5939   84.8051    7.2120 O.3     1  UNL1       -0.3537
     34 C          63.0665   85.5809    8.4057 C.3     1  UNL1        0.1435
     35 C          62.1183   86.4853    9.1358 C.3     1  UNL1        0.0478
@<TRIPOS>BOND
     1    13    14   ar
     2    14    15   ar
     3    15    16   ar
     4    16    17   ar
     5    17    18   ar
     6    17    19    1
     7    19    20    1
     8    20    21    1
     9    21    12    1
    10    12     1    1
    11     1    24    1
    12    24    25    1
    13    25    26    1
    14    26    27    1
    15    27    28    1
    16    28    30    1
    17    30    31    1
    18    31    32    1
    19    32    33    1
    20    33    34    1
    21    34    35    1
    22     2     1    1
    23     2     3    1
    24     3     4    1
    25     4     5    1
    26     5     6    1
    27     6     7   ar
    28     7     8   ar
    29     8     9   ar
    30     9    10   ar
    31    10    11   ar
    32    21    22    1
    33    18    13   ar
    34    35    30    1
    35    11     2    1
    36    22    16    1
    37    11     6   ar
    38    20    23    1
    39    28    29    1
@<TRIPOS>MOLECULE
*****
 35 39 0 0 0
SMALL
GASTEIGER

@<TRIPOS>ATOM
      1 N          61.5034   87.0026   10.7507 N.3     1  UNL1       -0.2679
      2 C          62.3367   85.7790   10.5091 C.3     1  UNL1        0.0978
      3 C          62.8276   85.4669    9.1265 C.3     1  UNL1        0.0224
      4 C          63.6610   84.2433    8.8849 C.3     1  UNL1        0.0065
      5 C          64.0034   83.3318   10.0259 C.3     1  UNL1        0.0277
      6 C          63.5125   83.6439   11.4085 C.ar    1  UNL1       -0.0073
      7 C          63.8549   82.7324   12.5495 C.ar    1  UNL1       -0.0015
      8 C          63.3639   83.0445   13.9321 C.ar    1  UNL1        0.0203
      9 C          62.5306   84.2681   14.1738 C.ar    1  UNL1        0.0985
     10 N          62.1882   85.1795   13.0328 N.ar    1  UNL1       -0.2471
     11 C          62.6791   84.8675   11.6501 C.ar    1  UNL1        0.0695
     12 C          61.8346   87.9231   11.8879 C.3     1  UNL1        0.0886
     13 C          65.8803   93.4800   11.9454 C.ar    1  UNL1       -0.0003
     14 C          65.9883   92.7803   13.2678 C.ar    1  UNL1       -0.0003
     15 C          65.2007   91.5290   13.5208 C.ar    1  UNL1       -0.0045
     16 C          64.3052   90.9773   12.4513 C.ar    1  UNL1       -0.0234
     17 C          64.1972   91.6770   11.1290 C.ar    1  UNL1       -0.0103
     18 C          64.9848   92.9283   10.8760 C.ar    1  UNL1       -0.0032
     19 C          63.3017   91.1254   10.0594 C.3     1  UNL1        0.0953
     20 N          62.5141   89.8741   10.3124 N.3     1  UNL1       -0.2934
     21 C          62.6221   89.1744   11.6349 C.3     1  UNL1        0.0748
     22 C          63.5177   89.7260   12.7043 C.3     1  UNL1        0.0432
     23 H          62.7942   89.2007    9.5993 H       1  UNL1        0.1236
     24 C          60.3388   87.3057    9.8552 C.3     1  UNL1        0.0725
     25 C          60.0171   86.3937    8.7087 C.3     1  UNL1        0.0188
     26 C          59.3020   86.9280    7.5032 C.3     1  UNL1        0.0185
     27 C          58.8951   88.3708    7.4507 C.3     1  UNL1        0.0686
     28 N          59.8661   89.4067    6.9668 N.3     1  UNL1       -0.2984
     29 H          60.6668   88.9038    6.5841 H       1  UNL1        0.1232
     30 C          59.4440   90.4032    5.9282 C.3     1  UNL1        0.0590
     31 C          60.4759   91.0821    5.0772 C.3     1  UNL1        0.0478
     32 C          60.0538   92.0787    4.0385 C.3     1  UNL1        0.1435
     33 O          58.5999   92.3963    3.8510 O.3     1  UNL1       -0.3537
     34 C          57.5680   91.7174    4.7021 C.3     1  UNL1        0.1435
     35 C          57.9901   90.7208    5.7407 C.3     1  UNL1        0.0478
@<TRIPOS>BOND
     1    13    14   ar
     2    14    15   ar
     3    15    16   ar
     4    16    17   ar
     5    17    18   ar
     6    17    19    1
     7    19    20    1
     8    20    21    1
     9    21    12    1
    10    12     1    1
    11     1    24    1
    12    24    25    1
    13    25    26    1
    14    26    27    1
    15    27    28    1
    16    28    30    1
    17    30    31    1
    18    31    32    1
    19    32    33    1
    20    33    34    1
    21    34    35    1
    22     2     1    1
    23     2     3    1
    24     3     4    1
    25     4     5    1
    26     5     6    1
    27     6     7   ar
    28     7     8   ar
    29     8     9   ar
    30     9    10   ar
    31    10    11   ar
    32    21    22    1
    33    18    13   ar
    34    35    30    1
    35    11     2    1
    36    22    16    1
    37    11     6   ar
    38    20    23    1
    39    28    29    1
