@<TRIPOS>MOLECULE
*****
 42 45 0 0 0
SMALL
GASTEIGER

@<TRIPOS>ATOM
      1 C          62.1341   87.1431    9.2126 C.3     1  UNL1        0.0886
      2 C          63.2682   86.2573    8.7891 C.3     1  UNL1        0.0774
      3 N          63.0146   85.1059    7.8618 N.3     1  UNL1       -0.2970
      4 C          61.6269   84.8403    7.3580 C.3     1  UNL1        0.0714
      5 C          60.4928   85.7260    7.7814 C.3     1  UNL1        0.0489
      6 C          60.7465   86.8774    8.7087 C.3     1  UNL1        0.1194
      7 H          63.3171   84.2628    8.3497 H       1  UNL1        0.1233
      8 C          60.4869   88.0819    9.5643 C.ar    1  UNL1        0.0048
      9 C          60.7076   89.4578    9.0093 C.ar    1  UNL1        0.0004
     10 C          60.4480   90.6622    9.8649 C.ar    1  UNL1        0.0317
     11 C          59.9677   90.4907   11.2755 C.ar    1  UNL1        0.1674
     12 F          59.7082   91.6951   12.1310 F       1  UNL1       -0.2018
     13 C          59.7470   89.1147   11.8306 C.ar    1  UNL1        0.1671
     14 F          59.2668   88.9432   13.2412 F       1  UNL1       -0.2018
     15 C          60.0066   87.9104   10.9750 C.ar    1  UNL1        0.0299
     16 C          62.8959   89.5862   12.1308 C.ar    1  UNL1        0.1823
     17 O          62.6603   90.5465   11.0029 O.2     1  UNL1       -0.3532
     18 N          62.3462   89.7482    9.7724 N.ar    1  UNL1       -0.0807
     19 C          62.3878   88.2945   10.1399 C.ar    1  UNL1        0.1103
     20 C          62.7275   88.1944   11.5974 C.ar    1  UNL1        0.0884
     21 BR         62.8732   86.9253   12.3836 Br      1  UNL1       -0.0444
     22 C          64.3620   90.9097   13.8188 C.ar    1  UNL1       -0.0174
     23 C          64.7056   91.2767   15.2320 C.ar    1  UNL1       -0.0041
     24 C          63.9269   90.6873   16.3705 C.ar    1  UNL1       -0.0003
     25 C          62.8045   89.7309   16.0958 C.ar    1  UNL1        0.0001
     26 C          62.4609   89.3639   14.6826 C.ar    1  UNL1        0.0028
     27 C          63.2396   89.9533   13.5441 C.ar    1  UNL1        0.0338
     28 C          65.1407   91.4991   12.6803 C.3     1  UNL1        0.0477
     29 C          66.0659   92.6545   12.9231 C.3     1  UNL1        0.0941
     30 C          66.1896   95.8034   10.5108 C.3     1  UNL1        0.0946
     31 C          66.4947   94.4604   11.1052 C.2     1  UNL1        0.2230
     32 O          67.5338   93.5804   10.4761 O.2     1  UNL1       -0.2751
     33 N          65.7607   93.9975   12.3288 N.am    1  UNL1       -0.3040
     34 H          65.0788   94.5751   12.7417 H       1  UNL1        0.1494
     35 O          59.2687   87.0301    8.5021 O.3     1  UNL1       -0.3514
     36 C          58.7295   87.3285    7.1345 C.3     1  UNL1        0.1740
     37 C          58.6163   88.7491    6.6664 C.3     1  UNL1        0.1692
     38 O          57.2859   89.4418    6.6873 O.3     1  UNL1       -0.3794
     39 H          56.6107   88.8349    7.0287 H       1  UNL1        0.2105
     40 C          59.8333   89.4769    6.1775 C.3     1  UNL1        0.1689
     41 O          59.6949   90.8325    5.5501 O.3     1  UNL1       -0.3794
     42 H          59.2064   90.7542    4.7158 H       1  UNL1        0.2105
@<TRIPOS>BOND
     1    30    31    1
     2    31    32    2
     3    31    33   am
     4    33    29    1
     5    29    28    1
     6    28    22    1
     7    22    23   ar
     8    23    24   ar
     9    24    25   ar
    10    25    26   ar
    11    26    27   ar
    12    27    16    1
    13    16    17   ar
    14    17    18   ar
    15    18    19   ar
    16     1    19    1
    17     1     2    1
    18     2     3    1
    19     3     4    1
    20     4     5    1
    21     5     6    1
    22     6    35    1
    23    35    36    1
    24    36    37    1
    25    37    38    1
    26    37    40    1
    27    40    41    1
    28     6     8    1
    29     8     9   ar
    30     9    10   ar
    31    10    11   ar
    32    11    12    1
    33    11    13   ar
    34    13    14    1
    35    13    15   ar
    36    19    20   ar
    37    20    21    1
    38    27    22   ar
    39    20    16   ar
    40     6     1    1
    41    15     8   ar
    42    33    34    1
    43     3     7    1
    44    38    39    1
    45    41    42    1
@<TRIPOS>MOLECULE
*****
 42 45 0 0 0
SMALL
GASTEIGER

@<TRIPOS>ATOM
      1 C          61.9790   86.7765    8.9341 C.3     1  UNL1        0.0886
      2 C          62.8238   85.6252    8.4751 C.3     1  UNL1        0.0774
      3 N          62.3554   84.7538    7.3476 N.3     1  UNL1       -0.2970
      4 C          61.0420   85.0337    6.6792 C.3     1  UNL1        0.0714
      5 C          60.1971   86.1849    7.1382 C.3     1  UNL1        0.0489
      6 C          60.6656   87.0563    8.2656 C.3     1  UNL1        0.1194
      7 H          62.3032   83.8027    7.7126 H       1  UNL1        0.1233
      8 C          60.6797   88.1578    9.2838 C.ar    1  UNL1        0.0048
      9 C          61.4137   89.4342    8.9978 C.ar    1  UNL1        0.0004
     10 C          61.4278   90.5357   10.0160 C.ar    1  UNL1        0.0317
     11 C          60.7078   90.3606   11.3202 C.ar    1  UNL1        0.1674
     12 F          60.7219   91.4620   12.3383 F       1  UNL1       -0.2018
     13 C          59.9738   89.0841   11.6063 C.ar    1  UNL1        0.1671
     14 F          59.2538   88.9091   12.9105 F       1  UNL1       -0.2018
     15 C          59.9597   87.9828   10.5881 C.ar    1  UNL1        0.0299
     16 C          62.9798   88.4545   12.2879 C.ar    1  UNL1        0.1823
     17 O          63.3569   89.5232   11.3052 O.2     1  UNL1       -0.3532
     18 N          63.0279   89.0247    9.9293 N.ar    1  UNL1       -0.0807
     19 C          62.4474   87.6479   10.0615 C.ar    1  UNL1        0.1103
     20 C          62.4177   87.2955   11.5193 C.ar    1  UNL1        0.0884
     21 BR         61.9143   86.0098   12.1054 Br      1  UNL1       -0.0444
     22 C          63.7891   87.4041   14.5221 C.ar    1  UNL1       -0.0174
     23 C          63.9464   87.4809   16.0118 C.ar    1  UNL1       -0.0041
     24 C          63.4517   88.6850   16.7571 C.ar    1  UNL1       -0.0003
     25 C          62.7997   89.8122   16.0127 C.ar    1  UNL1        0.0001
     26 C          62.6424   89.7354   14.5230 C.ar    1  UNL1        0.0028
     27 C          63.1371   88.5313   13.7777 C.ar    1  UNL1        0.0338
     28 C          64.2838   86.2000   13.7768 C.3     1  UNL1        0.0477
     29 C          64.7163   84.9771   14.5301 C.3     1  UNL1        0.0941
     30 C          62.0169   82.0714   14.3888 C.3     1  UNL1        0.0946
     31 C          62.6601   83.3957   14.6759 C.2     1  UNL1        0.2230
     32 O          61.8904   84.4629   15.3960 O.2     1  UNL1       -0.2751
     33 N          64.0731   83.6528   14.2429 N.am    1  UNL1       -0.3040
     34 H          64.5783   82.9523   13.7703 H       1  UNL1        0.1494
     35 O          59.3572   87.7188    7.9508 O.3     1  UNL1       -0.3514
     36 C          59.0587   88.1612    6.5490 C.3     1  UNL1        0.1740
     37 C          59.0498   89.6223    6.2095 C.3     1  UNL1        0.1692
     38 O          60.3436   90.3706    6.0825 O.3     1  UNL1       -0.3794
     39 H          61.0841   89.7668    6.2495 H       1  UNL1        0.2105
     40 C          57.7471   90.3349    5.9969 C.3     1  UNL1        0.1689
     41 O          57.7333   91.7085    5.3944 O.3     1  UNL1       -0.3794
     42 H          58.1624   92.3321    6.0010 H       1  UNL1        0.2105
@<TRIPOS>BOND
     1    30    31    1
     2    31    32    2
     3    31    33   am
     4    33    29    1
     5    29    28    1
     6    28    22    1
     7    22    23   ar
     8    23    24   ar
     9    24    25   ar
    10    25    26   ar
    11    26    27   ar
    12    27    16    1
    13    16    17   ar
    14    17    18   ar
    15    18    19   ar
    16     1    19    1
    17     1     2    1
    18     2     3    1
    19     3     4    1
    20     4     5    1
    21     5     6    1
    22     6    35    1
    23    35    36    1
    24    36    37    1
    25    37    38    1
    26    37    40    1
    27    40    41    1
    28     6     8    1
    29     8     9   ar
    30     9    10   ar
    31    10    11   ar
    32    11    12    1
    33    11    13   ar
    34    13    14    1
    35    13    15   ar
    36    19    20   ar
    37    20    21    1
    38    27    22   ar
    39    20    16   ar
    40     6     1    1
    41    15     8   ar
    42    33    34    1
    43     3     7    1
    44    38    39    1
    45    41    42    1
@<TRIPOS>MOLECULE
*****
 42 45 0 0 0
SMALL
GASTEIGER

@<TRIPOS>ATOM
      1 C          62.1916   86.3409    8.9626 C.3     1  UNL1        0.0886
      2 C          63.1005   85.3048    8.3707 C.3     1  UNL1        0.0774
      3 N          62.6935   84.5729    7.1263 N.3     1  UNL1       -0.2970
      4 C          61.3776   84.8773    6.4737 C.3     1  UNL1        0.0714
      5 C          60.4687   85.9134    7.0656 C.3     1  UNL1        0.0489
      6 C          60.8757   86.6452    8.3101 C.3     1  UNL1        0.1194
      7 H          62.6843   83.5798    7.3584 H       1  UNL1        0.1233
      8 C          60.8190   87.5976    9.4676 C.ar    1  UNL1        0.0048
      9 C          60.1285   87.1951   10.7368 C.ar    1  UNL1        0.0004
     10 C          60.0718   88.1475   11.8944 C.ar    1  UNL1        0.0317
     11 C          60.7055   89.5025   11.7824 C.ar    1  UNL1        0.1674
     12 F          60.6487   90.4548   12.9399 F       1  UNL1       -0.2018
     13 C          61.3960   89.9050   10.5131 C.ar    1  UNL1        0.1671
     14 F          62.0297   91.2599   10.4012 F       1  UNL1       -0.2018
     15 C          61.4527   88.9526    9.3557 C.ar    1  UNL1        0.0299
     16 C          63.1101   87.5771   12.5254 C.ar    1  UNL1        0.1823
     17 O          63.3399   88.8208   11.7189 O.2     1  UNL1       -0.3532
     18 N          63.0238   88.5091   10.2862 N.ar    1  UNL1       -0.0807
     19 C          62.5986   87.0727   10.2071 C.ar    1  UNL1        0.1103
     20 C          62.6520   86.4967   11.5911 C.ar    1  UNL1        0.0884
     21 BR         62.3077   85.0878   11.9735 Br      1  UNL1       -0.0444
     22 C          63.3282   88.6589   14.8775 C.ar    1  UNL1       -0.0174
     23 C          63.5224   88.5199   16.3583 C.ar    1  UNL1       -0.0041
     24 C          63.6929   87.1600   16.9680 C.ar    1  UNL1       -0.0003
     25 C          63.6691   85.9392   16.0969 C.ar    1  UNL1        0.0001
     26 C          63.4749   86.0782   14.6160 C.ar    1  UNL1        0.0028
     27 C          63.3044   87.4381   14.0064 C.ar    1  UNL1        0.0338
     28 C          63.1577   90.0188   14.2678 C.3     1  UNL1        0.0477
     29 C          64.3575   90.8821   14.0128 C.3     1  UNL1        0.0941
     30 C          65.6661   93.2436   11.1040 C.3     1  UNL1        0.0946
     31 C          65.4213   92.6857   12.4747 C.2     1  UNL1        0.2230
     32 O          65.9954   93.3732   13.6779 O.2     1  UNL1       -0.2751
     33 N          64.6023   91.4401   12.6421 N.am    1  UNL1       -0.3040
     34 H          64.2255   90.9889   11.8524 H       1  UNL1        0.1494
     35 O          59.5401   87.2803    8.0595 O.3     1  UNL1       -0.3514
     36 C          59.2937   88.0303    6.7840 C.3     1  UNL1        0.1740
     37 C          59.1437   89.5226    6.8084 C.3     1  UNL1        0.1692
     38 O          59.2014   90.2609    8.1128 O.3     1  UNL1       -0.3794
     39 H          59.3398   89.6294    8.8360 H       1  UNL1        0.2105
     40 C          58.9360   90.2765    5.5284 C.3     1  UNL1        0.1689
     41 O          58.8311   91.7727    5.5478 O.3     1  UNL1       -0.3794
     42 H          58.0267   92.0343    6.0226 H       1  UNL1        0.2105
@<TRIPOS>BOND
     1    30    31    1
     2    31    32    2
     3    31    33   am
     4    33    29    1
     5    29    28    1
     6    28    22    1
     7    22    23   ar
     8    23    24   ar
     9    24    25   ar
    10    25    26   ar
    11    26    27   ar
    12    27    16    1
    13    16    17   ar
    14    17    18   ar
    15    18    19   ar
    16     1    19    1
    17     1     2    1
    18     2     3    1
    19     3     4    1
    20     4     5    1
    21     5     6    1
    22     6    35    1
    23    35    36    1
    24    36    37    1
    25    37    38    1
    26    37    40    1
    27    40    41    1
    28     6     8    1
    29     8     9   ar
    30     9    10   ar
    31    10    11   ar
    32    11    12    1
    33    11    13   ar
    34    13    14    1
    35    13    15   ar
    36    19    20   ar
    37    20    21    1
    38    27    22   ar
    39    20    16   ar
    40     6     1    1
    41    15     8   ar
    42    33    34    1
    43     3     7    1
    44    38    39    1
    45    41    42    1
@<TRIPOS>MOLECULE
*****
 42 45 0 0 0
SMALL
GASTEIGER

@<TRIPOS>ATOM
      1 C          63.8714   83.1828   12.3341 C.3     1  UNL1        0.0886
      2 C          64.2571   83.1420   10.8851 C.3     1  UNL1        0.0774
      3 N          63.8842   81.9581   10.0429 N.3     1  UNL1       -0.2970
      4 C          63.1257   80.8151   10.6497 C.3     1  UNL1        0.0714
      5 C          62.7401   80.8559   12.0987 C.3     1  UNL1        0.0489
      6 C          63.1130   82.0398   12.9409 C.3     1  UNL1        0.1194
      7 H          64.7541   81.5724    9.6756 H       1  UNL1        0.1233
      8 C          63.2374   82.9347   14.1383 C.ar    1  UNL1        0.0048
      9 C          64.5003   82.9334   14.9475 C.ar    1  UNL1        0.0004
     10 C          64.6248   83.8284   16.1449 C.ar    1  UNL1        0.0317
     11 C          63.4862   84.7246   16.5330 C.ar    1  UNL1        0.1674
     12 F          63.6107   85.6194   17.7303 F       1  UNL1       -0.2018
     13 C          62.2233   84.7258   15.7237 C.ar    1  UNL1        0.1671
     14 F          61.0848   85.6220   16.1118 F       1  UNL1       -0.2018
     15 C          62.0989   83.8309   14.5264 C.ar    1  UNL1        0.0299
     16 C          64.2213   86.5613   14.2128 C.ar    1  UNL1        0.1823
     17 O          65.4149   85.8159   14.7321 O.2     1  UNL1       -0.3532
     18 N          65.4291   84.4596   14.0916 N.ar    1  UNL1       -0.0807
     19 C          64.2443   84.3667   13.1763 C.ar    1  UNL1        0.1103
     20 C          63.4978   85.6656   13.2513 C.ar    1  UNL1        0.0884
     21 BR         62.2474   86.0086   12.4971 Br      1  UNL1       -0.0444
     22 C          63.4689   88.9499   13.5210 C.ar    1  UNL1       -0.0174
     23 C          63.0690   90.3458   13.8971 C.ar    1  UNL1       -0.0041
     24 C          63.0214   90.7490   15.3412 C.ar    1  UNL1       -0.0003
     25 C          63.3737   89.7563   16.4090 C.ar    1  UNL1        0.0001
     26 C          63.7737   88.3604   16.0329 C.ar    1  UNL1        0.0028
     27 C          63.8213   87.9572   14.5889 C.ar    1  UNL1        0.0338
     28 C          63.5165   88.5467   12.0770 C.3     1  UNL1        0.0477
     29 C          62.7742   89.3486   11.0495 C.3     1  UNL1        0.0941
     30 C          59.9915   87.5644    8.8533 C.3     1  UNL1        0.0946
     31 C          60.6620   88.2557   10.0033 C.2     1  UNL1        0.2230
     32 O          59.8911   88.5453   11.2570 O.2     1  UNL1       -0.2751
     33 N          62.1036   88.6573    9.8995 N.am    1  UNL1       -0.3040
     34 H          62.6096   88.4672    9.0767 H       1  UNL1        0.1494
     35 O          62.3978   81.2075   13.9635 O.3     1  UNL1       -0.3514
     36 C          60.9138   81.3428   14.1358 C.3     1  UNL1        0.1740
     37 C          60.0491   80.1178   14.1799 C.3     1  UNL1        0.1692
     38 O          60.6580   78.7623   13.9751 O.3     1  UNL1       -0.3794
     39 H          61.6122   78.8554   13.8278 H       1  UNL1        0.2105
     40 C          58.5758   80.2485   14.4288 C.3     1  UNL1        0.1689
     41 O          57.9713   79.6699   15.6738 O.3     1  UNL1       -0.3794
     42 H          58.0470   78.7032   15.6509 H       1  UNL1        0.2105
@<TRIPOS>BOND
     1    30    31    1
     2    31    32    2
     3    31    33   am
     4    33    29    1
     5    29    28    1
     6    28    22    1
     7    22    23   ar
     8    23    24   ar
     9    24    25   ar
    10    25    26   ar
    11    26    27   ar
    12    27    16    1
    13    16    17   ar
    14    17    18   ar
    15    18    19   ar
    16     1    19    1
    17     1     2    1
    18     2     3    1
    19     3     4    1
    20     4     5    1
    21     5     6    1
    22     6    35    1
    23    35    36    1
    24    36    37    1
    25    37    38    1
    26    37    40    1
    27    40    41    1
    28     6     8    1
    29     8     9   ar
    30     9    10   ar
    31    10    11   ar
    32    11    12    1
    33    11    13   ar
    34    13    14    1
    35    13    15   ar
    36    19    20   ar
    37    20    21    1
    38    27    22   ar
    39    20    16   ar
    40     6     1    1
    41    15     8   ar
    42    33    34    1
    43     3     7    1
    44    38    39    1
    45    41    42    1
@<TRIPOS>MOLECULE
*****
 42 45 0 0 0
SMALL
GASTEIGER

@<TRIPOS>ATOM
      1 C          61.2761   86.9024    9.2295 C.3     1  UNL1        0.0886
      2 C          62.0724   85.6719    8.9105 C.3     1  UNL1        0.0774
      3 N          61.7611   84.8758    7.6779 N.3     1  UNL1       -0.2970
      4 C          60.6536   85.3101    6.7643 C.3     1  UNL1        0.0714
      5 C          59.8572   86.5406    7.0833 C.3     1  UNL1        0.0489
      6 C          60.1685   87.3367    8.3159 C.3     1  UNL1        0.1194
      7 H          61.5341   83.9307    7.9873 H       1  UNL1        0.1233
      8 C          60.0851   88.4136    9.3568 C.ar    1  UNL1        0.0048
      9 C          60.8628   89.6846    9.1851 C.ar    1  UNL1        0.0004
     10 C          60.7794   90.7614   10.2260 C.ar    1  UNL1        0.0317
     11 C          59.9181   90.5672   11.4387 C.ar    1  UNL1        0.1674
     12 F          59.8347   91.6440   12.4796 F       1  UNL1       -0.2018
     13 C          59.1403   89.2961   11.6104 C.ar    1  UNL1        0.1671
     14 F          58.2791   89.1019   12.8231 F       1  UNL1       -0.2018
     15 C          59.2238   88.2193   10.5695 C.ar    1  UNL1        0.0299
     16 C          62.6622   89.2225   12.0154 C.ar    1  UNL1        0.1823
     17 O          61.4704   88.6247   12.7024 O.2     1  UNL1       -0.3532
     18 N          60.8060   87.6828   11.7425 N.ar    1  UNL1       -0.0807
     19 C          61.5873   87.6985   10.4621 C.ar    1  UNL1        0.1103
     20 C          62.7345   88.6501   10.6307 C.ar    1  UNL1        0.0884
     21 BR         63.7718   88.9726    9.5964 Br      1  UNL1       -0.0444
     22 C          64.1785   89.9913   13.9800 C.ar    1  UNL1       -0.0174
     23 C          65.1308   90.9868   14.5733 C.ar    1  UNL1       -0.0041
     24 C          65.5193   92.2090   13.7952 C.ar    1  UNL1       -0.0003
     25 C          64.9555   92.4356   12.4239 C.ar    1  UNL1        0.0001
     26 C          64.0031   91.4402   11.8306 C.ar    1  UNL1        0.0028
     27 C          63.6146   90.2180   12.6087 C.ar    1  UNL1        0.0338
     28 C          63.7900   88.7692   14.7581 C.3     1  UNL1        0.0477
     29 C          64.3509   87.4302   14.3808 C.3     1  UNL1        0.0941
     30 C          63.0043   84.0871   12.7193 C.3     1  UNL1        0.0946
     31 C          63.8041   85.0199   13.5796 C.2     1  UNL1        0.2230
     32 O          64.8568   84.4755   14.4991 O.2     1  UNL1       -0.2751
     33 N          63.5512   86.4973   13.5205 N.am    1  UNL1       -0.3040
     34 H          62.8602   86.8547   12.9170 H       1  UNL1        0.1494
     35 O          59.0320   88.1451    7.7638 O.3     1  UNL1       -0.3514
     36 C          59.0204   88.5306    6.3143 C.3     1  UNL1        0.1740
     37 C          59.1124   89.9754    5.9216 C.3     1  UNL1        0.1692
     38 O          60.4531   90.6394    5.8137 O.3     1  UNL1       -0.3794
     39 H          61.1492   89.9991    6.0289 H       1  UNL1        0.2105
     40 C          57.8636   90.7561    5.6369 C.3     1  UNL1        0.1689
     41 O          57.9589   92.1569    5.1090 O.3     1  UNL1       -0.3794
     42 H          58.3585   92.7297    5.7821 H       1  UNL1        0.2105
@<TRIPOS>BOND
     1    30    31    1
     2    31    32    2
     3    31    33   am
     4    33    29    1
     5    29    28    1
     6    28    22    1
     7    22    23   ar
     8    23    24   ar
     9    24    25   ar
    10    25    26   ar
    11    26    27   ar
    12    27    16    1
    13    16    17   ar
    14    17    18   ar
    15    18    19   ar
    16     1    19    1
    17     1     2    1
    18     2     3    1
    19     3     4    1
    20     4     5    1
    21     5     6    1
    22     6    35    1
    23    35    36    1
    24    36    37    1
    25    37    38    1
    26    37    40    1
    27    40    41    1
    28     6     8    1
    29     8     9   ar
    30     9    10   ar
    31    10    11   ar
    32    11    12    1
    33    11    13   ar
    34    13    14    1
    35    13    15   ar
    36    19    20   ar
    37    20    21    1
    38    27    22   ar
    39    20    16   ar
    40     6     1    1
    41    15     8   ar
    42    33    34    1
    43     3     7    1
    44    38    39    1
    45    41    42    1
@<TRIPOS>MOLECULE
*****
 42 45 0 0 0
SMALL
GASTEIGER

@<TRIPOS>ATOM
      1 C          60.2091   88.3253   10.8691 C.3     1  UNL1        0.0886
      2 C          59.6459   88.8001   12.1758 C.3     1  UNL1        0.0774
      3 N          59.1350   90.2043   12.3062 N.3     1  UNL1       -0.2970
      4 C          59.1871   91.1337   11.1300 C.3     1  UNL1        0.0714
      5 C          59.7502   90.6589    9.8233 C.3     1  UNL1        0.0489
      6 C          60.2612   89.2547    9.6928 C.3     1  UNL1        0.1194
      7 H          59.6716   90.6447   13.0535 H       1  UNL1        0.1233
      8 C          60.8629   88.0249    9.0800 C.ar    1  UNL1        0.0048
      9 C          62.3202   87.7269    9.2729 C.ar    1  UNL1        0.0004
     10 C          62.9219   86.4971    8.6600 C.ar    1  UNL1        0.0317
     11 C          62.0660   85.5652    7.8542 C.ar    1  UNL1        0.1674
     12 F          62.6677   84.3355    7.2413 F       1  UNL1       -0.2018
     13 C          60.6086   85.8632    7.6613 C.ar    1  UNL1        0.1671
     14 F          59.7529   84.9314    6.8555 F       1  UNL1       -0.2018
     15 C          60.0071   87.0930    8.2742 C.ar    1  UNL1        0.0299
     16 C          62.0625   84.9181   11.0155 C.ar    1  UNL1        0.1823
     17 O          60.9503   84.6022   10.0600 O.2     1  UNL1       -0.3532
     18 N          60.1206   85.8400    9.8888 N.ar    1  UNL1       -0.0807
     19 C          60.7201   86.9211   10.7386 C.ar    1  UNL1        0.1103
     20 C          61.9202   86.3513   11.4349 C.ar    1  UNL1        0.0884
     21 BR         62.8201   87.0857   12.3840 Br      1  UNL1       -0.0444
     22 C          63.2818   83.6551   12.9307 C.ar    1  UNL1       -0.0174
     23 C          64.3490   82.7048   13.3868 C.ar    1  UNL1       -0.0041
     24 C          65.2641   82.0672   12.3837 C.ar    1  UNL1       -0.0003
     25 C          65.1120   82.3799   10.9246 C.ar    1  UNL1        0.0001
     26 C          64.0448   83.3302   10.4686 C.ar    1  UNL1        0.0028
     27 C          63.1297   83.9678   11.4716 C.ar    1  UNL1        0.0338
     28 C          62.3668   84.2926   13.9338 C.3     1  UNL1        0.0477
     29 C          62.5364   84.0011   15.3953 C.3     1  UNL1        0.0941
     30 C          62.9037   87.3427   17.5047 C.3     1  UNL1        0.0946
     31 C          63.1703   86.2704   16.4902 C.2     1  UNL1        0.2230
     32 O          64.3372   86.3951   15.5561 O.2     1  UNL1       -0.2751
     33 N          62.2698   85.0734   16.4099 N.am    1  UNL1       -0.3040
     34 H          61.5039   84.9915   17.0230 H       1  UNL1        0.1494
     35 O          60.5223   89.7570    8.3038 O.3     1  UNL1       -0.3514
     36 C          59.4529   89.6568    7.2567 C.3     1  UNL1        0.1740
     37 C          59.5506   90.4763    6.0041 C.3     1  UNL1        0.1692
     38 O          60.8868   90.9678    5.5317 O.3     1  UNL1       -0.3794
     39 H          61.5763   90.6698    6.1454 H       1  UNL1        0.2105
     40 C          58.3122   90.8042    5.2239 C.3     1  UNL1        0.1689
     41 O          57.7065   92.1732    5.3189 O.3     1  UNL1       -0.3794
     42 H          57.3747   92.3183    6.2188 H       1  UNL1        0.2105
@<TRIPOS>BOND
     1    30    31    1
     2    31    32    2
     3    31    33   am
     4    33    29    1
     5    29    28    1
     6    28    22    1
     7    22    23   ar
     8    23    24   ar
     9    24    25   ar
    10    25    26   ar
    11    26    27   ar
    12    27    16    1
    13    16    17   ar
    14    17    18   ar
    15    18    19   ar
    16     1    19    1
    17     1     2    1
    18     2     3    1
    19     3     4    1
    20     4     5    1
    21     5     6    1
    22     6    35    1
    23    35    36    1
    24    36    37    1
    25    37    38    1
    26    37    40    1
    27    40    41    1
    28     6     8    1
    29     8     9   ar
    30     9    10   ar
    31    10    11   ar
    32    11    12    1
    33    11    13   ar
    34    13    14    1
    35    13    15   ar
    36    19    20   ar
    37    20    21    1
    38    27    22   ar
    39    20    16   ar
    40     6     1    1
    41    15     8   ar
    42    33    34    1
    43     3     7    1
    44    38    39    1
    45    41    42    1
@<TRIPOS>MOLECULE
*****
 42 45 0 0 0
SMALL
GASTEIGER

@<TRIPOS>ATOM
      1 C          63.5278   87.7394   13.6646 C.3     1  UNL1        0.0886
      2 C          64.2208   86.4814   14.0974 C.3     1  UNL1        0.0774
      3 N          64.6252   86.3030   15.5307 N.3     1  UNL1       -0.2970
      4 C          64.3366   87.3826   16.5314 C.3     1  UNL1        0.0714
      5 C          63.6437   88.6405   16.0987 C.3     1  UNL1        0.0489
      6 C          63.2393   88.8189   14.6653 C.3     1  UNL1        0.1194
      7 H          65.6349   86.1588   15.5360 H       1  UNL1        0.1233
      8 C          62.6654   89.4482   13.4304 C.ar    1  UNL1        0.0048
      9 C          63.5218   90.3296   12.5705 C.ar    1  UNL1        0.0004
     10 C          62.9480   90.9588   11.3356 C.ar    1  UNL1        0.0317
     11 C          61.5176   90.7064   10.9607 C.ar    1  UNL1        0.1674
     12 F          60.9438   91.3356    9.7259 F       1  UNL1       -0.2018
     13 C          60.6612   89.8249   11.8207 C.ar    1  UNL1        0.1671
     14 F          59.2309   89.5726   11.4457 F       1  UNL1       -0.2018
     15 C          61.2351   89.1958   13.0555 C.ar    1  UNL1        0.0299
     16 C          62.0760   87.5760   10.0687 C.ar    1  UNL1        0.1823
     17 O          62.9262   88.8087    9.9822 O.2     1  UNL1       -0.3532
     18 N          63.5736   89.0200   11.3187 N.ar    1  UNL1       -0.0807
     19 C          63.1234   87.9178   12.2313 C.ar    1  UNL1        0.1103
     20 C          62.1979   87.0254   11.4586 C.ar    1  UNL1        0.0884
     21 BR         61.5142   85.7979   11.9838 Br      1  UNL1       -0.0444
     22 C          61.8006   85.8862    8.1144 C.ar    1  UNL1       -0.0174
     23 C          60.9737   85.3060    7.0057 C.ar    1  UNL1       -0.0041
     24 C          59.5951   85.8353    6.7423 C.ar    1  UNL1       -0.0003
     25 C          59.0434   86.9447    7.5877 C.ar    1  UNL1        0.0001
     26 C          59.8704   87.5250    8.6964 C.ar    1  UNL1        0.0028
     27 C          61.2490   86.9957    8.9598 C.ar    1  UNL1        0.0338
     28 C          63.1792   85.3570    8.3778 C.3     1  UNL1        0.0477
     29 C          63.3568   84.0057    9.0044 C.3     1  UNL1        0.0941
     30 C          64.4317   82.4626   12.4991 C.3     1  UNL1        0.0946
     31 C          63.8638   82.5791   11.1157 C.2     1  UNL1        0.2230
     32 O          63.2349   81.3855   10.4602 O.2     1  UNL1       -0.2751
     33 N          63.9248   83.8893   10.3878 N.am    1  UNL1       -0.3040
     34 H          64.3375   84.6727   10.8180 H       1  UNL1        0.1494
     35 O          62.7514   90.1170   15.2370 O.3     1  UNL1       -0.3514
     36 C          63.4267   90.7080   16.4390 C.3     1  UNL1        0.1740
     37 C          64.3359   91.8908   16.2827 C.3     1  UNL1        0.1692
     38 O          64.2229   93.0531   17.2241 O.3     1  UNL1       -0.3794
     39 H          63.5187   92.8802   17.8683 H       1  UNL1        0.2105
     40 C          65.3581   91.9110   15.1852 C.3     1  UNL1        0.1689
     41 O          65.9497   93.2140   14.7353 O.3     1  UNL1       -0.3794
     42 H          65.2595   93.7578   14.3245 H       1  UNL1        0.2105
@<TRIPOS>BOND
     1    30    31    1
     2    31    32    2
     3    31    33   am
     4    33    29    1
     5    29    28    1
     6    28    22    1
     7    22    23   ar
     8    23    24   ar
     9    24    25   ar
    10    25    26   ar
    11    26    27   ar
    12    27    16    1
    13    16    17   ar
    14    17    18   ar
    15    18    19   ar
    16     1    19    1
    17     1     2    1
    18     2     3    1
    19     3     4    1
    20     4     5    1
    21     5     6    1
    22     6    35    1
    23    35    36    1
    24    36    37    1
    25    37    38    1
    26    37    40    1
    27    40    41    1
    28     6     8    1
    29     8     9   ar
    30     9    10   ar
    31    10    11   ar
    32    11    12    1
    33    11    13   ar
    34    13    14    1
    35    13    15   ar
    36    19    20   ar
    37    20    21    1
    38    27    22   ar
    39    20    16   ar
    40     6     1    1
    41    15     8   ar
    42    33    34    1
    43     3     7    1
    44    38    39    1
    45    41    42    1
@<TRIPOS>MOLECULE
*****
 42 45 0 0 0
SMALL
GASTEIGER

@<TRIPOS>ATOM
      1 C          62.3232   86.3757   11.7661 C.3     1  UNL1        0.0886
      2 C          62.5611   85.1603   12.6124 C.3     1  UNL1        0.0774
      3 N          62.5638   83.7981   11.9845 N.3     1  UNL1       -0.2970
      4 C          62.3285   83.6512   10.5104 C.3     1  UNL1        0.0714
      5 C          62.0905   84.8665    9.6641 C.3     1  UNL1        0.0489
      6 C          62.0879   86.2288   10.2919 C.3     1  UNL1        0.1194
      7 H          61.8383   83.2561   12.4540 H       1  UNL1        0.1233
      8 C          61.9919   87.7200   10.4238 C.ar    1  UNL1        0.0048
      9 C          63.2241   88.5652   10.2937 C.ar    1  UNL1        0.0004
     10 C          63.1282   90.0564   10.4256 C.ar    1  UNL1        0.0317
     11 C          61.7998   90.7022   10.6875 C.ar    1  UNL1        0.1674
     12 F          61.7039   92.1932   10.8193 F       1  UNL1       -0.2018
     13 C          60.5675   89.8568   10.8175 C.ar    1  UNL1        0.1671
     14 F          59.2393   90.5026   11.0794 F       1  UNL1       -0.2018
     15 C          60.6636   88.3658   10.6857 C.ar    1  UNL1        0.0299
     16 C          62.9835   89.6919   13.6719 C.ar    1  UNL1        0.1823
     17 O          61.6493   89.9767   13.0482 O.2     1  UNL1       -0.3532
     18 N          61.2396   88.7692   12.2584 N.ar    1  UNL1       -0.0807
     19 C          62.3205   87.7380   12.3939 C.ar    1  UNL1        0.1103
     20 C          63.3983   88.3083   13.2675 C.ar    1  UNL1        0.0884
     21 BR         64.6679   87.6164   13.6666 Br      1  UNL1       -0.0444
     22 C          64.8198   91.5092   13.9468 C.ar    1  UNL1       -0.0174
     23 C          65.6018   92.4438   14.8214 C.ar    1  UNL1       -0.0041
     24 C          65.3295   92.4959   16.2956 C.ar    1  UNL1       -0.0003
     25 C          64.2753   91.6133   16.8952 C.ar    1  UNL1        0.0001
     26 C          63.4933   90.6786   16.0206 C.ar    1  UNL1        0.0028
     27 C          63.7655   90.6266   14.5465 C.ar    1  UNL1        0.0338
     28 C          65.0920   91.4572   12.4727 C.3     1  UNL1        0.0477
     29 C          65.3950   92.7193   11.7209 C.3     1  UNL1        0.0941
     30 C          68.4479   92.3032    9.2196 C.3     1  UNL1        0.0946
     31 C          67.6557   92.3599   10.4921 C.2     1  UNL1        0.2230
     32 O          68.3320   92.1140   11.8082 O.2     1  UNL1       -0.2751
     33 N          66.1872   92.6626   10.4485 N.am    1  UNL1       -0.3040
     34 H          65.7433   92.8239    9.5846 H       1  UNL1        0.1494
     35 O          61.8192   86.5998    8.8636 O.3     1  UNL1       -0.3514
     36 C          60.6256   86.0334    8.1534 C.3     1  UNL1        0.1740
     37 C          59.4730   86.9245    7.7958 C.3     1  UNL1        0.1692
     38 O          58.0761   86.3780    7.7905 O.3     1  UNL1       -0.3794
     39 H          58.0947   85.4406    8.0392 H       1  UNL1        0.2105
     40 C          59.7175   88.3618    7.4435 C.3     1  UNL1        0.1689
     41 O          58.7971   89.0679    6.4925 O.3     1  UNL1       -0.3794
     42 H          58.8747   88.6694    5.6115 H       1  UNL1        0.2105
@<TRIPOS>BOND
     1    30    31    1
     2    31    32    2
     3    31    33   am
     4    33    29    1
     5    29    28    1
     6    28    22    1
     7    22    23   ar
     8    23    24   ar
     9    24    25   ar
    10    25    26   ar
    11    26    27   ar
    12    27    16    1
    13    16    17   ar
    14    17    18   ar
    15    18    19   ar
    16     1    19    1
    17     1     2    1
    18     2     3    1
    19     3     4    1
    20     4     5    1
    21     5     6    1
    22     6    35    1
    23    35    36    1
    24    36    37    1
    25    37    38    1
    26    37    40    1
    27    40    41    1
    28     6     8    1
    29     8     9   ar
    30     9    10   ar
    31    10    11   ar
    32    11    12    1
    33    11    13   ar
    34    13    14    1
    35    13    15   ar
    36    19    20   ar
    37    20    21    1
    38    27    22   ar
    39    20    16   ar
    40     6     1    1
    41    15     8   ar
    42    33    34    1
    43     3     7    1
    44    38    39    1
    45    41    42    1
@<TRIPOS>MOLECULE
*****
 42 45 0 0 0
SMALL
GASTEIGER

@<TRIPOS>ATOM
      1 C          63.3175   82.5957   11.9630 C.3     1  UNL1        0.0886
      2 C          63.6048   82.1347   10.5648 C.3     1  UNL1        0.0774
      3 N          63.3941   80.6975   10.1908 N.3     1  UNL1       -0.2970
      4 C          62.8962   79.7212   11.2150 C.3     1  UNL1        0.0714
      5 C          62.6090   80.1822   12.6132 C.3     1  UNL1        0.0489
      6 C          62.8196   81.6194   12.9872 C.3     1  UNL1        0.1194
      7 H          64.2921   80.3447    9.8598 H       1  UNL1        0.1233
      8 C          62.8626   82.8684   13.8169 C.ar    1  UNL1        0.0048
      9 C          61.6623   83.7652   13.8850 C.ar    1  UNL1        0.0004
     10 C          61.7052   85.0142   14.7147 C.ar    1  UNL1        0.0317
     11 C          62.9486   85.3661   15.4764 C.ar    1  UNL1        0.1674
     12 F          62.9915   86.6150   16.3062 F       1  UNL1       -0.2018
     13 C          64.1490   84.4691   15.4084 C.ar    1  UNL1        0.1671
     14 F          65.3923   84.8211   16.1701 F       1  UNL1       -0.2018
     15 C          64.1060   83.2203   14.5787 C.ar    1  UNL1        0.0299
     16 C          63.3389   86.4517   12.4065 C.ar    1  UNL1        0.1823
     17 O          64.3658   86.0378   13.4184 O.2     1  UNL1       -0.3532
     18 N          64.4828   84.5430   13.3755 N.ar    1  UNL1       -0.0807
     19 C          63.5282   84.0330   12.3369 C.ar    1  UNL1        0.1103
     20 C          62.8212   85.2126   11.7381 C.ar    1  UNL1        0.0884
     21 BR         61.7794   85.1620   10.6601 Br      1  UNL1       -0.0444
     22 C          63.3924   88.9865   12.9737 C.ar    1  UNL1       -0.0174
     23 C          62.9591   90.3925   12.6814 C.ar    1  UNL1       -0.0041
     24 C          62.0391   90.6697   11.5295 C.ar    1  UNL1       -0.0003
     25 C          61.5523   89.5409   10.6700 C.ar    1  UNL1        0.0001
     26 C          61.9856   88.1349   10.9624 C.ar    1  UNL1        0.0028
     27 C          62.9056   87.8577   12.1142 C.ar    1  UNL1        0.0338
     28 C          64.3124   88.7094   14.1255 C.3     1  UNL1        0.0477
     29 C          64.6945   89.8159   15.0633 C.3     1  UNL1        0.0941
     30 C          66.8177   93.1664   14.9356 C.3     1  UNL1        0.0946
     31 C          65.7910   92.1539   15.3489 C.2     1  UNL1        0.2230
     32 O          64.8344   92.4668   16.4610 O.2     1  UNL1       -0.2751
     33 N          65.7211   90.8284   14.6501 N.am    1  UNL1       -0.3040
     34 H          66.3490   90.6230   13.9201 H       1  UNL1        0.1494
     35 O          62.3367   81.0769   14.2996 O.3     1  UNL1       -0.3514
     36 C          61.3652   79.9344   14.3269 C.3     1  UNL1        0.1740
     37 C          59.8903   80.2024   14.2721 C.3     1  UNL1        0.1692
     38 O          59.3825   81.4846   13.6820 O.3     1  UNL1       -0.3794
     39 H          60.1326   82.0235   13.3857 H       1  UNL1        0.2105
     40 C          58.9234   79.1883   14.8073 C.3     1  UNL1        0.1689
     41 O          57.8285   79.6151   15.7397 O.3     1  UNL1       -0.3794
     42 H          58.2162   79.9254   16.5730 H       1  UNL1        0.2105
@<TRIPOS>BOND
     1    30    31    1
     2    31    32    2
     3    31    33   am
     4    33    29    1
     5    29    28    1
     6    28    22    1
     7    22    23   ar
     8    23    24   ar
     9    24    25   ar
    10    25    26   ar
    11    26    27   ar
    12    27    16    1
    13    16    17   ar
    14    17    18   ar
    15    18    19   ar
    16     1    19    1
    17     1     2    1
    18     2     3    1
    19     3     4    1
    20     4     5    1
    21     5     6    1
    22     6    35    1
    23    35    36    1
    24    36    37    1
    25    37    38    1
    26    37    40    1
    27    40    41    1
    28     6     8    1
    29     8     9   ar
    30     9    10   ar
    31    10    11   ar
    32    11    12    1
    33    11    13   ar
    34    13    14    1
    35    13    15   ar
    36    19    20   ar
    37    20    21    1
    38    27    22   ar
    39    20    16   ar
    40     6     1    1
    41    15     8   ar
    42    33    34    1
    43     3     7    1
    44    38    39    1
    45    41    42    1
