@<TRIPOS>MOLECULE
*****
 27 29 0 0 0
SMALL
GASTEIGER

@<TRIPOS>ATOM
      1 C          62.5282   89.4515   10.7571 C.ar    1  UNL1        0.0070
      2 C          63.0011   90.7149   10.1014 C.ar    1  UNL1       -0.0017
      3 C          63.9436   91.6289   10.8268 C.ar    1  UNL1       -0.0002
      4 C          64.4133   91.2794   12.2078 C.ar    1  UNL1        0.0001
      5 C          65.3559   92.1935   12.9332 C.ar    1  UNL1        0.0045
      6 C          65.8256   91.8440   14.3142 C.ar    1  UNL1        0.0531
      7 C          65.3526   90.5805   14.9699 C.ar    1  UNL1        0.0045
      8 C          64.4101   89.6665   14.2445 C.ar    1  UNL1        0.0001
      9 C          63.9404   90.0160   12.8635 C.ar    1  UNL1       -0.0002
     10 C          62.9979   89.1020   12.1381 C.ar    1  UNL1       -0.0017
     11 C          66.7681   92.7580   15.0396 C.2     1  UNL1        0.2427
     12 N          66.4904   93.1468   16.4615 N.am    1  UNL1       -0.3253
     13 O          67.9883   93.2833   14.3431 O.2     1  UNL1       -0.2704
     14 H          65.6896   92.8020   16.9187 H       1  UNL1        0.1453
     15 H          67.1091   93.7467   16.9376 H       1  UNL1        0.1453
     16 C          61.5856   88.5374   10.0317 C.3     1  UNL1        0.1410
     17 O          62.7231   88.0255    9.1986 O.3     1  UNL1       -0.3771
     18 H          62.5896   88.2862    8.2739 H       1  UNL1        0.2112
     19 C          60.4482   89.0493   10.8648 C.ar    1  UNL1        0.0825
     20 C          59.8884   90.4406   10.8331 C.ar    1  UNL1        0.1157
     21 N          58.7650   90.5110   11.8246 N.ar    1  UNL1       -0.2228
     22 C          58.6305   89.1631   12.4692 C.ar    1  UNL1        0.1749
     23 N          59.6707   88.2598   11.8760 N.ar    1  UNL1       -0.3361
     24 H          59.8175   87.3147   12.1094 H       1  UNL1        0.1673
     25 C          60.7399   86.1391    9.5000 C.3     1  UNL1        0.0031
     26 C          60.6431   87.6234    9.3064 C.3     1  UNL1        0.0340
     27 C          59.6036   88.1937    8.3875 C.3     1  UNL1        0.0031
@<TRIPOS>BOND
     1    25    26    1
     2    26    27    1
     3    26    16    1
     4    16    17    1
     5    16     1    1
     6     1     2   ar
     7     2     3   ar
     8     3     4   ar
     9     4     5   ar
    10     5     6   ar
    11     6    11    1
    12    11    12   am
    13    11    13    2
    14     6     7   ar
    15     7     8   ar
    16     8     9   ar
    17     9    10   ar
    18    16    19    1
    19    19    20   ar
    20    20    21   ar
    21    21    22   ar
    22    22    23   ar
    23    10     1   ar
    24    23    19   ar
    25     9     4   ar
    26    17    18    1
    27    12    14    1
    28    12    15    1
    29    23    24    1
@<TRIPOS>MOLECULE
*****
 27 29 0 0 0
SMALL
GASTEIGER

@<TRIPOS>ATOM
      1 C          63.5507   90.1505   12.5067 C.ar    1  UNL1        0.0070
      2 C          62.8546   91.0724   11.5499 C.ar    1  UNL1       -0.0017
      3 C          61.9642   90.5111   10.4812 C.ar    1  UNL1       -0.0002
      4 C          61.7700   89.0280   10.3692 C.ar    1  UNL1        0.0001
      5 C          60.8796   88.4667    9.3004 C.ar    1  UNL1        0.0045
      6 C          60.6853   86.9836    9.1885 C.ar    1  UNL1        0.0531
      7 C          61.3815   86.0617   10.1454 C.ar    1  UNL1        0.0045
      8 C          62.2719   86.6229   11.2141 C.ar    1  UNL1        0.0001
      9 C          62.4661   88.1061   11.3260 C.ar    1  UNL1       -0.0002
     10 C          63.3564   88.6673   12.3948 C.ar    1  UNL1       -0.0017
     11 C          59.7950   86.4223    8.1198 C.2     1  UNL1        0.2427
     12 N          60.3232   85.3882    7.1701 N.am    1  UNL1       -0.3253
     13 O          58.3764   86.8950    8.0007 O.2     1  UNL1       -0.2704
     14 H          61.2543   85.0779    7.2483 H       1  UNL1        0.1453
     15 H          59.7388   85.0198    6.4687 H       1  UNL1        0.1453
     16 C          64.4411   90.7117   13.5755 C.3     1  UNL1        0.1410
     17 O          65.0035   91.6940   12.5912 O.3     1  UNL1       -0.3771
     18 H          65.9405   91.4964   12.4367 H       1  UNL1        0.2112
     19 C          63.8786   89.7295   14.5598 C.ar    1  UNL1        0.0825
     20 C          64.4423   88.3755   14.8743 C.ar    1  UNL1        0.1157
     21 N          63.5658   87.7379   15.9114 N.ar    1  UNL1       -0.2228
     22 C          62.4603   88.6980   16.2377 C.ar    1  UNL1        0.1749
     23 N          62.6537   89.9288   15.4024 N.ar    1  UNL1       -0.3361
     24 H          62.0778   90.7273   15.4065 H       1  UNL1        0.1673
     25 C          64.7326   91.8517   15.8918 C.3     1  UNL1        0.0031
     26 C          65.3314   91.2729   14.6443 C.3     1  UNL1        0.0340
     27 C          66.8207   91.2553   14.4655 C.3     1  UNL1        0.0031
@<TRIPOS>BOND
     1    25    26    1
     2    26    27    1
     3    26    16    1
     4    16    17    1
     5    16     1    1
     6     1     2   ar
     7     2     3   ar
     8     3     4   ar
     9     4     5   ar
    10     5     6   ar
    11     6    11    1
    12    11    12   am
    13    11    13    2
    14     6     7   ar
    15     7     8   ar
    16     8     9   ar
    17     9    10   ar
    18    16    19    1
    19    19    20   ar
    20    20    21   ar
    21    21    22   ar
    22    22    23   ar
    23    10     1   ar
    24    23    19   ar
    25     9     4   ar
    26    17    18    1
    27    12    14    1
    28    12    15    1
    29    23    24    1
@<TRIPOS>MOLECULE
*****
 27 29 0 0 0
SMALL
GASTEIGER

@<TRIPOS>ATOM
      1 C          62.6092   89.2080   11.2029 C.ar    1  UNL1        0.0070
      2 C          62.9030   88.4602   12.4696 C.ar    1  UNL1       -0.0017
      3 C          63.8510   89.0375   13.4785 C.ar    1  UNL1       -0.0002
      4 C          64.5051   90.3625   13.2209 C.ar    1  UNL1        0.0001
      5 C          65.4531   90.9398   14.2300 C.ar    1  UNL1        0.0045
      6 C          66.1073   92.2648   13.9723 C.ar    1  UNL1        0.0531
      7 C          65.8134   93.0126   12.7055 C.ar    1  UNL1        0.0045
      8 C          64.8655   92.4353   11.6966 C.ar    1  UNL1        0.0001
      9 C          64.2113   91.1103   11.9542 C.ar    1  UNL1       -0.0002
     10 C          63.2634   90.5330   10.9452 C.ar    1  UNL1       -0.0017
     11 C          67.0552   92.8420   14.9813 C.2     1  UNL1        0.2427
     12 N          66.5847   93.1231   16.3776 N.am    1  UNL1       -0.3253
     13 O          68.4738   93.1383   14.5940 O.2     1  UNL1       -0.2704
     14 H          65.6536   92.9287   16.6318 H       1  UNL1        0.1453
     15 H          67.2069   93.5020   17.0398 H       1  UNL1        0.1453
     16 C          61.6612   88.6308   10.1938 C.3     1  UNL1        0.1410
     17 O          62.8090   87.9600    9.4992 O.3     1  UNL1       -0.3771
     18 H          62.9236   88.3467    8.6170 H       1  UNL1        0.2112
     19 C          60.5134   89.3015   10.8885 C.ar    1  UNL1        0.0825
     20 C          59.5838   88.6601   11.8757 C.ar    1  UNL1        0.1157
     21 N          58.5895   89.6937   12.3153 N.ar    1  UNL1       -0.2228
     22 C          58.9047   90.9739   11.5998 C.ar    1  UNL1        0.1749
     23 N          60.0937   90.7315   10.7181 N.ar    1  UNL1       -0.3361
     24 H          60.5232   91.3946   10.1306 H       1  UNL1        0.1673
     25 C          59.9937   88.9579    8.2286 C.3     1  UNL1        0.0031
     26 C          60.7132   88.0536    9.1849 C.3     1  UNL1        0.0340
     27 C          60.4847   86.5720    9.1321 C.3     1  UNL1        0.0031
@<TRIPOS>BOND
     1    25    26    1
     2    26    27    1
     3    26    16    1
     4    16    17    1
     5    16     1    1
     6     1     2   ar
     7     2     3   ar
     8     3     4   ar
     9     4     5   ar
    10     5     6   ar
    11     6    11    1
    12    11    12   am
    13    11    13    2
    14     6     7   ar
    15     7     8   ar
    16     8     9   ar
    17     9    10   ar
    18    16    19    1
    19    19    20   ar
    20    20    21   ar
    21    21    22   ar
    22    22    23   ar
    23    10     1   ar
    24    23    19   ar
    25     9     4   ar
    26    17    18    1
    27    12    14    1
    28    12    15    1
    29    23    24    1
@<TRIPOS>MOLECULE
*****
 27 29 0 0 0
SMALL
GASTEIGER

@<TRIPOS>ATOM
      1 C          61.7752   89.5236   10.5763 C.ar    1  UNL1        0.0070
      2 C          61.7011   89.0727   12.0050 C.ar    1  UNL1       -0.0017
      3 C          62.6511   89.6365   13.0196 C.ar    1  UNL1       -0.0002
      4 C          63.6752   90.6513   12.6055 C.ar    1  UNL1        0.0001
      5 C          64.6253   91.2151   13.6202 C.ar    1  UNL1        0.0045
      6 C          65.6495   92.2298   13.2062 C.ar    1  UNL1        0.0531
      7 C          65.7236   92.6807   11.7774 C.ar    1  UNL1        0.0045
      8 C          64.7736   92.1168   10.7628 C.ar    1  UNL1        0.0001
      9 C          63.7494   91.1021   11.1768 C.ar    1  UNL1       -0.0002
     10 C          62.7994   90.5383   10.1622 C.ar    1  UNL1       -0.0017
     11 C          66.5995   92.7936   14.2208 C.2     1  UNL1        0.2427
     12 N          66.1247   93.0813   15.6143 N.am    1  UNL1       -0.3253
     13 O          68.0244   93.0698   13.8419 O.2     1  UNL1       -0.2704
     14 H          65.1895   92.9000   15.8630 H       1  UNL1        0.1453
     15 H          66.7482   93.4514   16.2802 H       1  UNL1        0.1453
     16 C          60.8251   88.9598    9.5616 C.3     1  UNL1        0.1410
     17 O          60.2705   90.3320    9.3183 O.3     1  UNL1       -0.3771
     18 H          59.3473   90.3647    9.6143 H       1  UNL1        0.2112
     19 C          61.3798   87.5875    9.8048 C.ar    1  UNL1        0.0825
     20 C          62.3712   86.8706    8.9370 C.ar    1  UNL1        0.1157
     21 N          62.6446   85.5311    9.5545 N.ar    1  UNL1       -0.2228
     22 C          61.8221   85.4202   10.8040 C.ar    1  UNL1        0.1749
     23 N          61.0404   86.6911   10.9587 N.ar    1  UNL1       -0.3361
     24 H          60.4145   86.9001   11.6893 H       1  UNL1        0.1673
     25 C          59.1353   87.1239    8.8378 C.3     1  UNL1        0.0031
     26 C          59.8751   88.3959    8.5469 C.3     1  UNL1        0.0340
     27 C          59.6650   89.1041    7.2414 C.3     1  UNL1        0.0031
@<TRIPOS>BOND
     1    25    26    1
     2    26    27    1
     3    26    16    1
     4    16    17    1
     5    16     1    1
     6     1     2   ar
     7     2     3   ar
     8     3     4   ar
     9     4     5   ar
    10     5     6   ar
    11     6    11    1
    12    11    12   am
    13    11    13    2
    14     6     7   ar
    15     7     8   ar
    16     8     9   ar
    17     9    10   ar
    18    16    19    1
    19    19    20   ar
    20    20    21   ar
    21    21    22   ar
    22    22    23   ar
    23    10     1   ar
    24    23    19   ar
    25     9     4   ar
    26    17    18    1
    27    12    14    1
    28    12    15    1
    29    23    24    1
@<TRIPOS>MOLECULE
*****
 27 29 0 0 0
SMALL
GASTEIGER

@<TRIPOS>ATOM
      1 C          62.8181   84.5374   13.2305 C.ar    1  UNL1        0.0070
      2 C          62.2425   85.0609   11.9481 C.ar    1  UNL1       -0.0017
      3 C          62.3979   86.5098   11.5926 C.ar    1  UNL1       -0.0002
      4 C          63.1289   87.4352   12.5195 C.ar    1  UNL1        0.0001
      5 C          63.2843   88.8842   12.1639 C.ar    1  UNL1        0.0045
      6 C          64.0153   89.8097   13.0908 C.ar    1  UNL1        0.0531
      7 C          64.5910   89.2861   14.3733 C.ar    1  UNL1        0.0045
      8 C          64.4356   87.8372   14.7288 C.ar    1  UNL1        0.0001
      9 C          63.7046   86.9118   13.8019 C.ar    1  UNL1       -0.0002
     10 C          63.5492   85.4628   14.1574 C.ar    1  UNL1       -0.0017
     11 C          64.1707   91.2586   12.7353 C.2     1  UNL1        0.2427
     12 N          63.8030   91.7376   11.3622 N.am    1  UNL1       -0.3253
     13 O          64.6938   92.2286   13.7529 O.2     1  UNL1       -0.2704
     14 H          63.4597   91.1010   10.6943 H       1  UNL1        0.1453
     15 H          63.9050   92.6886   11.1288 H       1  UNL1        0.1453
     16 C          62.6627   83.0884   13.5860 C.3     1  UNL1        0.1410
     17 O          62.0461   83.4762   14.8972 O.3     1  UNL1       -0.3771
     18 H          62.6312   83.2061   15.6222 H       1  UNL1        0.2112
     19 C          63.2794   82.7006   12.2748 C.ar    1  UNL1        0.0825
     20 C          64.5809   83.2080   11.7282 C.ar    1  UNL1        0.1157
     21 N          64.8088   82.5582   10.3955 N.ar    1  UNL1       -0.2228
     22 C          63.6481   81.6492   10.1185 C.ar    1  UNL1        0.1749
     23 N          62.7029   81.7372   11.2800 N.ar    1  UNL1       -0.3361
     24 H          61.8534   81.2485   11.3730 H       1  UNL1        0.1673
     25 C          61.1394   81.0615   14.1526 C.3     1  UNL1        0.0031
     26 C          62.5074   81.6395   13.9415 C.3     1  UNL1        0.0340
     27 C          63.7201   80.7684   14.0860 C.3     1  UNL1        0.0031
@<TRIPOS>BOND
     1    25    26    1
     2    26    27    1
     3    26    16    1
     4    16    17    1
     5    16     1    1
     6     1     2   ar
     7     2     3   ar
     8     3     4   ar
     9     4     5   ar
    10     5     6   ar
    11     6    11    1
    12    11    12   am
    13    11    13    2
    14     6     7   ar
    15     7     8   ar
    16     8     9   ar
    17     9    10   ar
    18    16    19    1
    19    19    20   ar
    20    20    21   ar
    21    21    22   ar
    22    22    23   ar
    23    10     1   ar
    24    23    19   ar
    25     9     4   ar
    26    17    18    1
    27    12    14    1
    28    12    15    1
    29    23    24    1
@<TRIPOS>MOLECULE
*****
 27 29 0 0 0
SMALL
GASTEIGER

@<TRIPOS>ATOM
      1 C          64.3984   90.9050   12.6662 C.ar    1  UNL1        0.0070
      2 C          64.0192   91.7976   11.5219 C.ar    1  UNL1       -0.0017
      3 C          63.0917   91.2961   10.4550 C.ar    1  UNL1       -0.0002
      4 C          62.5433   89.9021   10.5325 C.ar    1  UNL1        0.0001
      5 C          61.6157   89.4006    9.4656 C.ar    1  UNL1        0.0045
      6 C          61.0674   88.0066    9.5431 C.ar    1  UNL1        0.0531
      7 C          61.4467   87.1140   10.6875 C.ar    1  UNL1        0.0045
      8 C          62.3742   87.6155   11.7543 C.ar    1  UNL1        0.0001
      9 C          62.9225   89.0095   11.6768 C.ar    1  UNL1       -0.0002
     10 C          63.8501   89.5110   12.7437 C.ar    1  UNL1       -0.0017
     11 C          60.1399   87.5051    8.4763 C.2     1  UNL1        0.2427
     12 N          59.3158   88.4750    7.6823 N.am    1  UNL1       -0.3253
     13 O          60.0363   86.0338    8.2034 O.2     1  UNL1       -0.2704
     14 H          59.3838   89.4407    7.8614 H       1  UNL1        0.1453
     15 H          58.7070   88.1459    6.9821 H       1  UNL1        0.1453
     16 C          65.3260   91.4065   13.7331 C.3     1  UNL1        0.1410
     17 O          64.7245   90.4404   14.7102 O.3     1  UNL1       -0.3771
     18 H          64.2603   90.9314   15.4062 H       1  UNL1        0.2112
     19 C          65.9275   92.3726   12.7560 C.ar    1  UNL1        0.0825
     20 C          66.8762   92.0284   11.6462 C.ar    1  UNL1        0.1157
     21 N          67.2210   93.2956   10.9213 N.ar    1  UNL1       -0.2228
     22 C          66.4854   94.4230   11.5832 C.ar    1  UNL1        0.1749
     23 N          65.6860   93.8525   12.7170 N.ar    1  UNL1       -0.3361
     24 H          65.1049   94.3603   13.3283 H       1  UNL1        0.1673
     25 C          65.6988   92.5795   16.0211 C.3     1  UNL1        0.0031
     26 C          66.2536   91.9079   14.7999 C.3     1  UNL1        0.0340
     27 C          67.7359   91.7379   14.6455 C.3     1  UNL1        0.0031
@<TRIPOS>BOND
     1    25    26    1
     2    26    27    1
     3    26    16    1
     4    16    17    1
     5    16     1    1
     6     1     2   ar
     7     2     3   ar
     8     3     4   ar
     9     4     5   ar
    10     5     6   ar
    11     6    11    1
    12    11    12   am
    13    11    13    2
    14     6     7   ar
    15     7     8   ar
    16     8     9   ar
    17     9    10   ar
    18    16    19    1
    19    19    20   ar
    20    20    21   ar
    21    21    22   ar
    22    22    23   ar
    23    10     1   ar
    24    23    19   ar
    25     9     4   ar
    26    17    18    1
    27    12    14    1
    28    12    15    1
    29    23    24    1
@<TRIPOS>MOLECULE
*****
 27 29 0 0 0
SMALL
GASTEIGER

@<TRIPOS>ATOM
      1 C          62.0230   89.8208   10.5158 C.ar    1  UNL1        0.0070
      2 C          62.9747   90.7595    9.8353 C.ar    1  UNL1       -0.0017
      3 C          64.0428   91.4508   10.6297 C.ar    1  UNL1       -0.0002
      4 C          64.1592   91.2035   12.1046 C.ar    1  UNL1        0.0001
      5 C          65.2273   91.8950   12.8990 C.ar    1  UNL1        0.0045
      6 C          65.3437   91.6477   14.3739 C.ar    1  UNL1        0.0531
      7 C          64.3919   90.7089   15.0544 C.ar    1  UNL1        0.0045
      8 C          63.3239   90.0176   14.2600 C.ar    1  UNL1        0.0001
      9 C          63.2075   90.2649   12.7851 C.ar    1  UNL1       -0.0002
     10 C          62.1394   89.5735   11.9907 C.ar    1  UNL1       -0.0017
     11 C          66.4118   92.3391   15.1683 C.2     1  UNL1        0.2427
     12 N          66.1158   92.8313   16.5540 N.am    1  UNL1       -0.3253
     13 O          67.7759   92.5382   14.5771 O.2     1  UNL1       -0.2704
     14 H          65.2205   92.7007   16.9421 H       1  UNL1        0.1453
     15 H          66.8169   93.2851   17.0754 H       1  UNL1        0.1453
     16 C          60.9548   89.1293    9.7214 C.3     1  UNL1        0.1410
     17 O          60.2755   90.4462    9.4885 O.3     1  UNL1       -0.3771
     18 H          59.4159   90.4506    9.9378 H       1  UNL1        0.2112
     19 C          61.6341   87.8125    9.9543 C.ar    1  UNL1        0.0825
     20 C          61.5835   87.0055   11.2177 C.ar    1  UNL1        0.1157
     21 N          62.4015   85.7655   11.0089 N.ar    1  UNL1       -0.2228
     22 C          62.9577   85.8062    9.6163 C.ar    1  UNL1        0.1749
     23 N          62.4834   87.0712    8.9646 N.ar    1  UNL1       -0.3361
     24 H          62.6928   87.3637    8.0481 H       1  UNL1        0.1673
     25 C          59.5794   88.8903    7.5302 C.3     1  UNL1        0.0031
     26 C          59.8867   88.4379    8.9270 C.3     1  UNL1        0.0340
     27 C          59.1259   87.2940    9.5294 C.3     1  UNL1        0.0031
@<TRIPOS>BOND
     1    25    26    1
     2    26    27    1
     3    26    16    1
     4    16    17    1
     5    16     1    1
     6     1     2   ar
     7     2     3   ar
     8     3     4   ar
     9     4     5   ar
    10     5     6   ar
    11     6    11    1
    12    11    12   am
    13    11    13    2
    14     6     7   ar
    15     7     8   ar
    16     8     9   ar
    17     9    10   ar
    18    16    19    1
    19    19    20   ar
    20    20    21   ar
    21    21    22   ar
    22    22    23   ar
    23    10     1   ar
    24    23    19   ar
    25     9     4   ar
    26    17    18    1
    27    12    14    1
    28    12    15    1
    29    23    24    1
@<TRIPOS>MOLECULE
*****
 27 29 0 0 0
SMALL
GASTEIGER

@<TRIPOS>ATOM
      1 C          63.0249   86.1561   12.4714 C.ar    1  UNL1        0.0070
      2 C          62.4404   85.0696   11.6182 C.ar    1  UNL1       -0.0017
      3 C          61.6098   85.4220   10.4200 C.ar    1  UNL1       -0.0002
      4 C          61.3635   86.8608   10.0750 C.ar    1  UNL1        0.0001
      5 C          60.5328   87.2132    8.8767 C.ar    1  UNL1        0.0045
      6 C          60.2866   88.6521    8.5316 C.ar    1  UNL1        0.0531
      7 C          60.8711   89.7386    9.3848 C.ar    1  UNL1        0.0045
      8 C          61.7018   89.3862   10.5831 C.ar    1  UNL1        0.0001
      9 C          61.9480   87.9473   10.9281 C.ar    1  UNL1       -0.0002
     10 C          62.7787   87.5949   12.1263 C.ar    1  UNL1       -0.0017
     11 C          59.4559   89.0044    7.3334 C.2     1  UNL1        0.2427
     12 N          59.8992   90.0998    6.4093 N.am    1  UNL1       -0.3253
     13 O          58.1820   88.2615    7.0592 O.2     1  UNL1       -0.2704
     14 H          60.7353   90.5874    6.5893 H       1  UNL1        0.1453
     15 H          59.3539   90.3311    5.6229 H       1  UNL1        0.1453
     16 C          63.8557   85.8037   13.6696 C.3     1  UNL1        0.1410
     17 O          63.9770   87.2587   14.0135 O.3     1  UNL1       -0.3771
     18 H          64.9015   87.5370   13.9202 H       1  UNL1        0.2112
     19 C          63.7344   84.3487   13.3258 C.ar    1  UNL1        0.0825
     20 C          62.6559   83.4185   13.7965 C.ar    1  UNL1        0.1157
     21 N          62.9252   82.0632   13.2125 N.ar    1  UNL1       -0.2228
     22 C          64.1703   82.1560   12.3809 C.ar    1  UNL1        0.1749
     23 N          64.6703   83.5684   12.4510 N.ar    1  UNL1       -0.3361
     24 H          65.4720   83.9214   12.0017 H       1  UNL1        0.1673
     25 C          64.0598   85.4144   16.2302 C.3     1  UNL1        0.0031
     26 C          64.6864   85.4513   14.8678 C.3     1  UNL1        0.0340
     27 C          66.1436   85.1359   14.7037 C.3     1  UNL1        0.0031
@<TRIPOS>BOND
     1    25    26    1
     2    26    27    1
     3    26    16    1
     4    16    17    1
     5    16     1    1
     6     1     2   ar
     7     2     3   ar
     8     3     4   ar
     9     4     5   ar
    10     5     6   ar
    11     6    11    1
    12    11    12   am
    13    11    13    2
    14     6     7   ar
    15     7     8   ar
    16     8     9   ar
    17     9    10   ar
    18    16    19    1
    19    19    20   ar
    20    20    21   ar
    21    21    22   ar
    22    22    23   ar
    23    10     1   ar
    24    23    19   ar
    25     9     4   ar
    26    17    18    1
    27    12    14    1
    28    12    15    1
    29    23    24    1
@<TRIPOS>MOLECULE
*****
 27 29 0 0 0
SMALL
GASTEIGER

@<TRIPOS>ATOM
      1 C          58.2140   94.0233   -1.8600 C.ar    1  UNL1        0.0070
      2 C          59.4719   93.8789   -2.6641 C.ar    1  UNL1       -0.0017
      3 C          60.7529   93.4876   -1.9889 C.ar    1  UNL1       -0.0002
      4 C          60.7759   93.2408   -0.5095 C.ar    1  UNL1        0.0001
      5 C          62.0570   92.8495    0.1657 C.ar    1  UNL1        0.0045
      6 C          62.0800   92.6027    1.6450 C.ar    1  UNL1        0.0531
      7 C          60.8220   92.7472    2.4492 C.ar    1  UNL1        0.0045
      8 C          59.5410   93.1384    1.7740 C.ar    1  UNL1        0.0001
      9 C          59.5180   93.3853    0.2946 C.ar    1  UNL1       -0.0002
     10 C          58.2370   93.7765   -0.3806 C.ar    1  UNL1       -0.0017
     11 C          63.3610   92.2114    2.3203 C.2     1  UNL1        0.2427
     12 N          64.6712   92.7192    1.7952 N.am    1  UNL1       -0.3253
     13 O          63.3319   91.3123    3.5206 O.2     1  UNL1       -0.2704
     14 H          64.6903   93.3093    1.0073 H       1  UNL1        0.1453
     15 H          65.5119   92.4624    2.2383 H       1  UNL1        0.1453
     16 C          56.9329   94.4146   -2.5352 C.3     1  UNL1        0.1410
     17 O          57.1571   95.8423   -2.1334 O.3     1  UNL1       -0.3771
     18 H          56.4714   96.1122   -1.5027 H       1  UNL1        0.2112
     19 C          56.7087   92.9870   -2.9370 C.ar    1  UNL1        0.0825
     20 C          57.3597   92.2830   -4.0905 C.ar    1  UNL1        0.1157
     21 N          56.8473   90.8735   -4.1222 N.ar    1  UNL1       -0.2228
     22 C          55.8797   90.7064   -2.9882 C.ar    1  UNL1        0.1749
     23 N          55.7940   92.0125   -2.2557 N.ar    1  UNL1       -0.3361
     24 H          55.2355   92.1978   -1.4664 H       1  UNL1        0.1673
     25 C          54.4625   95.2054   -2.3884 C.3     1  UNL1        0.0031
     26 C          55.6519   94.8059   -3.2104 C.3     1  UNL1        0.0340
     27 C          55.5603   94.7975   -4.7076 C.3     1  UNL1        0.0031
@<TRIPOS>BOND
     1    25    26    1
     2    26    27    1
     3    26    16    1
     4    16    17    1
     5    16     1    1
     6     1     2   ar
     7     2     3   ar
     8     3     4   ar
     9     4     5   ar
    10     5     6   ar
    11     6    11    1
    12    11    12   am
    13    11    13    2
    14     6     7   ar
    15     7     8   ar
    16     8     9   ar
    17     9    10   ar
    18    16    19    1
    19    19    20   ar
    20    20    21   ar
    21    21    22   ar
    22    22    23   ar
    23    10     1   ar
    24    23    19   ar
    25     9     4   ar
    26    17    18    1
    27    12    14    1
    28    12    15    1
    29    23    24    1
