@<TRIPOS>MOLECULE
*****
 32 36 0 0 0
SMALL
GASTEIGER

@<TRIPOS>ATOM
      1 C          63.7648   86.4573   15.2545 C.ar    1  UNL1        0.0518
      2 C          63.1307   86.5818   16.6081 C.ar    1  UNL1        0.0170
      3 C          63.0001   87.9293   17.2540 C.ar    1  UNL1        0.0310
      4 C          63.5036   89.1522   16.5463 C.ar    1  UNL1        0.1431
      5 F          63.3729   90.4997   17.1922 F       1  UNL1       -0.2041
      6 C          64.1377   89.0277   15.1926 C.ar    1  UNL1        0.0645
      7 C          64.2683   87.6802   14.5467 C.ar    1  UNL1        0.0200
      8 C          64.6412   90.2507   14.4849 C.ar    1  UNL1        0.1661
      9 N          64.4440   90.5733   13.0334 N.ar    1  UNL1       -0.2234
     10 C          65.1112   91.8877   12.7558 C.ar    1  UNL1        0.1168
     11 C          65.2424   92.7019   11.5029 C.ar    1  UNL1        0.0237
     12 C          65.9832   94.0059   11.5300 C.ar    1  UNL1        0.0186
     13 C          66.5928   94.4957   12.8100 C.ar    1  UNL1        0.0735
     14 N          66.4616   93.6815   14.0629 N.ar    1  UNL1       -0.3361
     15 C          65.7208   92.3775   14.0358 C.ar    1  UNL1        0.1600
     16 N          65.4303   91.3658   15.1045 N.ar    1  UNL1       -0.2081
     17 H          66.8617   94.0030   14.9031 H       1  UNL1        0.1674
     18 C          66.1145   94.8201   10.2770 C.ar    1  UNL1        0.0015
     19 C          65.2657   96.0418   10.0841 C.ar    1  UNL1        0.0000
     20 C          65.3969   96.8560    8.8313 C.ar    1  UNL1        0.0000
     21 C          66.3770   96.4486    7.7712 C.ar    1  UNL1        0.0000
     22 C          67.2258   95.2270    7.9641 C.ar    1  UNL1        0.0000
     23 C          67.0945   94.4128    9.2171 C.ar    1  UNL1        0.0000
     24 O          61.4728   84.5235   15.3414 O.2     1  UNL1       -0.2522
     25 C          62.7495   84.1429   14.6520 C.2     1  UNL1        0.3077
     26 N          63.8955   85.1098   14.6085 N.am    1  UNL1       -0.2681
     27 N          62.8801   82.7954   14.0060 N.am    1  UNL1       -0.2640
     28 C          64.0886   82.2773   13.2840 C.3     1  UNL1        0.0950
     29 C          63.7806   80.8911   12.8004 C.3     1  UNL1        0.0233
     30 C          62.3819   80.5527   13.2236 C.3     1  UNL1        0.0233
     31 C          61.8254   81.7296   13.9686 C.3     1  UNL1        0.0950
     32 H          64.7334   84.8600   14.1560 H       1  UNL1        0.1564
@<TRIPOS>BOND
     1    24    25    2
     2    25    26   am
     3    26     1    1
     4     1     2   ar
     5     2     3   ar
     6     3     4   ar
     7     4     5    1
     8     4     6   ar
     9     6     8    1
    10     8     9   ar
    11     9    10   ar
    12    10    11   ar
    13    11    12   ar
    14    12    18    1
    15    18    19   ar
    16    19    20   ar
    17    20    21   ar
    18    21    22   ar
    19    22    23   ar
    20    12    13   ar
    21    13    14   ar
    22    14    15   ar
    23    15    16   ar
    24     6     7   ar
    25    25    27   am
    26    27    28    1
    27    28    29    1
    28    29    30    1
    29    30    31    1
    30     7     1   ar
    31    31    27    1
    32    16     8   ar
    33    15    10    1
    34    23    18   ar
    35    26    32    1
    36    14    17    1
