@<TRIPOS>MOLECULE
*****
 13 12 0 0 0
SMALL
GASTEIGER

@<TRIPOS>ATOM
      1 CA         65.8833   92.3050   15.2379 C.3     1  ASN1        0.0970
      2 N          65.7403   92.7796   16.6536 N.3     1  ASN1       -0.3175
      3 H1         66.2784   93.6367   16.7808 H       1  ASN1        0.1191
      4 H2         66.0885   92.0621   17.2896 H       1  ASN1        0.1191
      5 C          66.7253   93.0802   14.2684 C.2     1  ASN1        0.0649
      6 O          68.0841   92.5744   13.8836 O.co2   1  ASN1       -0.5478
      7 OXT        66.2087   94.3613   13.6836 O.co2   1  ASN1       -0.5478
      8 CB         65.1842   91.0551   14.7917 C.3     1  ASN1        0.1059
      9 ND2        62.7938   90.1260   14.3755 N.am    1  ASN1       -0.3287
     10 CG         63.8044   90.7478   15.2933 C.2     1  ASN1        0.2211
     11 OD1        63.4351   91.0621   16.7127 O.2     1  ASN1       -0.2753
     12 HD21       61.8882   89.9243   14.7047 H       1  ASN1        0.1449
     13 HD22       63.0362   89.9197   13.4438 H       1  ASN1        0.1449
@<TRIPOS>UNITY_ATOM_ATTR
6 1
charge -1
@<TRIPOS>BOND
     1     9    10   am
     2    10    11    2
     3    10     8    1
     4     8     1    1
     5     1     2    1
     6     1     5    1
     7     5     6   ar
     8     5     7   ar
     9     9    12    1
    10     9    13    1
    11     2     3    1
    12     2     4    1
@<TRIPOS>MOLECULE
*****
 13 12 0 0 0
SMALL
GASTEIGER

@<TRIPOS>ATOM
      1 CA         62.3254   82.1415   13.9067 C.3     1  ASN1        0.0970
      2 N          62.6686   82.7135   15.2502 N.3     1  ASN1       -0.3175
      3 H1         62.3270   82.0907   15.9822 H       1  ASN1        0.1191
      4 H2         62.2313   83.6294   15.3516 H       1  ASN1        0.1191
      5 C          61.5872   80.8391   13.8124 C.2     1  ASN1        0.0649
      6 O          60.1874   80.7305   14.3403 O.co2   1  ASN1       -0.5478
      7 OXT        62.2488   79.6454   13.1901 O.co2   1  ASN1       -0.5478
      8 CB         62.7203   82.8719   12.6575 C.3     1  ASN1        0.1059
      9 ND2        65.0125   83.8574   13.3820 N.am    1  ASN1       -0.3287
     10 CG         64.1682   83.1394   12.3711 C.2     1  ASN1        0.2211
     11 OD1        64.7719   82.6891   11.0739 O.2     1  ASN1       -0.2753
     12 HD21       65.9628   84.0329   13.1941 H       1  ASN1        0.1449
     13 HD22       64.6163   84.1530   14.2334 H       1  ASN1        0.1449
@<TRIPOS>UNITY_ATOM_ATTR
6 1
charge -1
@<TRIPOS>BOND
     1     9    10   am
     2    10    11    2
     3    10     8    1
     4     8     1    1
     5     1     2    1
     6     1     5    1
     7     5     6   ar
     8     5     7   ar
     9     9    12    1
    10     9    13    1
    11     2     3    1
    12     2     4    1
@<TRIPOS>MOLECULE
*****
 13 12 0 0 0
SMALL
GASTEIGER

@<TRIPOS>ATOM
      1 CA         64.4652   91.1932   14.4370 C.3     1  ASN1        0.0970
      2 N          63.8097   91.4905   13.1209 N.3     1  ASN1       -0.3175
      3 H1         62.7969   91.4275   13.2236 H       1  ASN1        0.1191
      4 H2         64.1236   90.8147   12.4244 H       1  ASN1        0.1191
      5 C          63.6253   90.8683   15.6367 C.2     1  ASN1        0.0649
      6 O          62.8364   89.5931   15.6768 O.co2   1  ASN1       -0.5478
      7 OXT        63.5743   91.8185   16.7961 O.co2   1  ASN1       -0.5478
      8 CB         65.9603   91.2207   14.5534 C.3     1  ASN1        0.1059
      9 ND2        66.3830   93.0072   16.3918 N.am    1  ASN1       -0.3287
     10 CG         66.6535   92.4667   15.0189 C.2     1  ASN1        0.2211
     11 OD1        67.6173   93.1724   14.1116 O.2     1  ASN1       -0.2753
     12 HD21       66.8380   93.8251   16.6973 H       1  ASN1        0.1449
     13 HD22       65.7505   92.5441   16.9873 H       1  ASN1        0.1449
@<TRIPOS>UNITY_ATOM_ATTR
6 1
charge -1
@<TRIPOS>BOND
     1     9    10   am
     2    10    11    2
     3    10     8    1
     4     8     1    1
     5     1     2    1
     6     1     5    1
     7     5     6   ar
     8     5     7   ar
     9     9    12    1
    10     9    13    1
    11     2     3    1
    12     2     4    1
@<TRIPOS>MOLECULE
*****
 13 12 0 0 0
SMALL
GASTEIGER

@<TRIPOS>ATOM
      1 CA         63.3787   82.9019   12.1617 C.3     1  ASN1        0.0970
      2 N          64.7952   82.7374   11.6965 N.3     1  ASN1       -0.3175
      3 H1         65.1852   83.6509   11.4645 H       1  ASN1        0.1191
      4 H2         64.8145   82.1396   10.8703 H       1  ASN1        0.1191
      5 C          62.7635   84.2686   12.2232 C.2     1  ASN1        0.0649
      6 O          62.1866   84.8878   10.9848 O.co2   1  ASN1       -0.5478
      7 OXT        62.7251   85.0160   13.5232 O.co2   1  ASN1       -0.5478
      8 CB         62.5775   81.6999   12.5654 C.3     1  ASN1        0.1059
      9 ND2        62.6341   82.3124   15.0896 N.am    1  ASN1       -0.3287
     10 CG         61.9644   81.6318   13.9327 C.2     1  ASN1        0.2211
     11 OD1        60.6817   80.8833   14.1431 O.2     1  ASN1       -0.2753
     12 HD21       62.2318   82.2677   15.9871 H       1  ASN1        0.1449
     13 HD22       63.4760   82.8037   14.9515 H       1  ASN1        0.1449
@<TRIPOS>UNITY_ATOM_ATTR
6 1
charge -1
@<TRIPOS>BOND
     1     9    10   am
     2    10    11    2
     3    10     8    1
     4     8     1    1
     5     1     2    1
     6     1     5    1
     7     5     6   ar
     8     5     7   ar
     9     9    12    1
    10     9    13    1
    11     2     3    1
    12     2     4    1
@<TRIPOS>MOLECULE
*****
 13 12 0 0 0
SMALL
GASTEIGER

@<TRIPOS>ATOM
      1 CA         62.4190   82.3887   14.0075 C.3     1  ASN1        0.0970
      2 N          62.7412   82.8117   15.4101 N.3     1  ASN1       -0.3175
      3 H1         62.4239   82.0949   16.0628 H       1  ASN1        0.1191
      4 H2         62.2695   83.6922   15.6165 H       1  ASN1        0.1191
      5 C          61.7306   81.0794   13.7584 C.2     1  ASN1        0.0649
      6 O          60.3654   80.8297   14.3274 O.co2   1  ASN1       -0.5478
      7 OXT        62.4075   80.0199   12.9404 O.co2   1  ASN1       -0.5478
      8 CB         62.7851   83.2749   12.8541 C.3     1  ASN1        0.1059
      9 ND2        63.5192   85.4303   14.1054 N.am    1  ASN1       -0.3287
     10 CG         62.7389   84.7661   13.0098 C.2     1  ASN1        0.2211
     11 OD1        61.9126   85.5931   12.0701 O.2     1  ASN1       -0.2753
     12 HD21       63.4888   86.4090   14.2076 H       1  ASN1        0.1449
     13 HD22       64.0615   84.8875   14.7222 H       1  ASN1        0.1449
@<TRIPOS>UNITY_ATOM_ATTR
6 1
charge -1
@<TRIPOS>BOND
     1     9    10   am
     2    10    11    2
     3    10     8    1
     4     8     1    1
     5     1     2    1
     6     1     5    1
     7     5     6   ar
     8     5     7   ar
     9     9    12    1
    10     9    13    1
    11     2     3    1
    12     2     4    1
@<TRIPOS>MOLECULE
*****
 13 12 0 0 0
SMALL
GASTEIGER

@<TRIPOS>ATOM
      1 CA         63.8588   83.2083   12.2791 C.3     1  ASN1        0.0970
      2 N          64.9479   82.8701   11.3046 N.3     1  ASN1       -0.3175
      3 H1         65.7339   83.5062   11.4390 H       1  ASN1        0.1191
      4 H2         64.5936   82.9638   10.3527 H       1  ASN1        0.1191
      5 C          64.0426   84.3402   13.2462 C.2     1  ASN1        0.0649
      6 O          65.1071   84.2609   14.3000 O.co2   1  ASN1       -0.5478
      7 OXT        63.1620   85.5513   13.1594 O.co2   1  ASN1       -0.5478
      8 CB         62.5860   82.4147   12.2865 C.3     1  ASN1        0.1059
      9 ND2        62.1535   81.6937   14.7448 N.am    1  ASN1       -0.3287
     10 CG         62.3820   81.3340   13.3065 C.2     1  ASN1        0.2211
     11 OD1        62.4064   79.8937   12.8884 O.2     1  ASN1       -0.2753
     12 HD21       62.0195   80.9844   15.4143 H       1  ASN1        0.1449
     13 HD22       62.1374   82.6390   15.0192 H       1  ASN1        0.1449
@<TRIPOS>UNITY_ATOM_ATTR
6 1
charge -1
@<TRIPOS>BOND
     1     9    10   am
     2    10    11    2
     3    10     8    1
     4     8     1    1
     5     1     2    1
     6     1     5    1
     7     5     6   ar
     8     5     7   ar
     9     9    12    1
    10     9    13    1
    11     2     3    1
    12     2     4    1
@<TRIPOS>MOLECULE
*****
 13 12 0 0 0
SMALL
GASTEIGER

@<TRIPOS>ATOM
      1 CA         66.2253   94.1553   11.7074 C.3     1  ASN1        0.0970
      2 N          65.8860   95.6108   11.8351 N.3     1  ASN1       -0.3175
      3 H1         65.6857   95.8289   12.8112 H       1  ASN1        0.1191
      4 H2         65.0665   95.8202   11.2650 H       1  ASN1        0.1191
      5 C          66.2284   93.2764   12.9231 C.2     1  ASN1        0.0649
      6 O          67.4355   93.2308   13.8124 O.co2   1  ASN1       -0.5478
      7 OXT        65.0246   92.4432   13.2493 O.co2   1  ASN1       -0.5478
      8 CB         66.5615   93.5786   10.3642 C.3     1  ASN1        0.1059
      9 ND2        67.4241   95.3623    8.6836 N.am    1  ASN1       -0.3287
     10 CG         67.6781   94.1670    9.5536 C.2     1  ASN1        0.2211
     11 OD1        69.0485   93.5601    9.6129 O.2     1  ASN1       -0.2753
     12 HD21       68.1570   95.7485    8.1516 H       1  ASN1        0.1449
     13 HD22       66.5247   95.7606    8.6447 H       1  ASN1        0.1449
@<TRIPOS>UNITY_ATOM_ATTR
6 1
charge -1
@<TRIPOS>BOND
     1     9    10   am
     2    10    11    2
     3    10     8    1
     4     8     1    1
     5     1     2    1
     6     1     5    1
     7     5     6   ar
     8     5     7   ar
     9     9    12    1
    10     9    13    1
    11     2     3    1
    12     2     4    1
@<TRIPOS>MOLECULE
*****
 13 12 0 0 0
SMALL
GASTEIGER

@<TRIPOS>ATOM
      1 CA         45.8352   79.0955    7.8041 C.3     1  ASN1        0.0970
      2 N          46.3575   79.9889    8.8900 N.3     1  ASN1       -0.3175
      3 H1         46.3414   80.9574    8.5706 H       1  ASN1        0.1191
      4 H2         47.3151   79.7221    9.1186 H       1  ASN1        0.1191
      5 C          45.3925   79.6837    6.4971 C.2     1  ASN1        0.0649
      6 O          45.4479   78.8581    5.2460 O.co2   1  ASN1       -0.5478
      7 OXT        44.8943   81.0975    6.4413 O.co2   1  ASN1       -0.5478
      8 CB         45.7557   77.6141    8.0251 C.3     1  ASN1        0.1059
      9 ND2        45.0806   77.5394   10.5329 N.am    1  ASN1       -0.3287
     10 CG         45.9380   77.0505    9.4032 C.2     1  ASN1        0.2211
     11 OD1        46.9776   75.9982    9.6517 O.2     1  ASN1       -0.2753
     12 HD21       45.2003   77.1695   11.4374 H       1  ASN1        0.1449
     13 HD22       44.3983   78.2301   10.3698 H       1  ASN1        0.1449
@<TRIPOS>UNITY_ATOM_ATTR
6 1
charge -1
@<TRIPOS>BOND
     1     9    10   am
     2    10    11    2
     3    10     8    1
     4     8     1    1
     5     1     2    1
     6     1     5    1
     7     5     6   ar
     8     5     7   ar
     9     9    12    1
    10     9    13    1
    11     2     3    1
    12     2     4    1
@<TRIPOS>MOLECULE
*****
 13 12 0 0 0
SMALL
GASTEIGER

@<TRIPOS>ATOM
      1 CA         63.9531   82.8847   12.3238 C.3     1  ASN1        0.0970
      2 N          64.9949   82.8052   11.2475 N.3     1  ASN1       -0.3175
      3 H1         65.2529   81.8301   11.0955 H       1  ASN1        0.1191
      4 H2         65.8189   83.3346   11.5322 H       1  ASN1        0.1191
      5 C          63.4618   81.6316   12.9861 C.2     1  ASN1        0.0649
      6 O          62.8180   80.5530   12.1664 O.co2   1  ASN1       -0.5478
      7 OXT        63.6145   81.4573   14.4681 O.co2   1  ASN1       -0.5478
      8 CB         63.4026   84.2172   12.7378 C.3     1  ASN1        0.1059
      9 ND2        64.9556   84.2779   14.8197 N.am    1  ASN1       -0.3287
     10 CG         64.0508   84.9828   13.8529 C.2     1  ASN1        0.2211
     11 OD1        63.7943   86.4532   14.0013 O.2     1  ASN1       -0.2753
     12 HD21       65.3811   84.7804   15.5516 H       1  ASN1        0.1449
     13 HD22       65.1240   83.3128   14.7223 H       1  ASN1        0.1449
@<TRIPOS>UNITY_ATOM_ATTR
6 1
charge -1
@<TRIPOS>BOND
     1     9    10   am
     2    10    11    2
     3    10     8    1
     4     8     1    1
     5     1     2    1
     6     1     5    1
     7     5     6   ar
     8     5     7   ar
     9     9    12    1
    10     9    13    1
    11     2     3    1
    12     2     4    1
