@<TRIPOS>MOLECULE
*****
 44 49 0 0 0
SMALL
GASTEIGER

@<TRIPOS>ATOM
      1 C          65.8239   91.3723   14.1543 C.ar    1  UNL1        0.0870
      2 N          65.2619   90.2648   14.9955 N.ar    1  UNL1       -0.2279
      3 C          64.1014   89.4573   14.4944 C.ar    1  UNL1        0.1596
      4 N          63.5393   88.3498   15.3357 N.pl3   1  UNL1       -0.3402
      5 C          63.5028   89.7573   13.1520 C.ar    1  UNL1        0.1696
      6 C          64.0648   90.8647   12.3108 C.ar    1  UNL1        0.0428
      7 C          65.2254   91.6722   12.8120 C.ar    1  UNL1        0.0380
      8 H          63.9322   88.1530   16.2167 H       1  UNL1        0.1438
      9 H          62.7776   87.8198   15.0068 H       1  UNL1        0.1438
     10 C          65.7874   92.7797   11.9708 C.ar    1  UNL1        0.0777
     11 C          65.4537   94.2069   12.2895 C.ar    1  UNL1        0.1176
     12 N          66.0157   95.3144   11.4482 N.ar    1  UNL1       -0.2209
     13 C          66.9114   94.9947   10.2883 C.ar    1  UNL1        0.2006
     14 N          67.6087   95.8681    9.2880 N.ar    1  UNL1       -0.1272
     15 N          68.3733   94.9809    8.3510 N.ar    1  UNL1       -0.1493
     16 C          68.1486   93.5589    8.7723 C.ar    1  UNL1        0.0995
     17 C          68.7260   92.3420    8.1121 C.3     1  UNL1        0.0557
     18 C          67.2451   93.5674    9.9696 C.ar    1  UNL1        0.1101
     19 N          66.6830   92.4599   10.8108 N.ar    1  UNL1       -0.3484
     20 H          66.9021   91.5232   10.6016 H       1  UNL1        0.1661
     21 C          68.8262   91.4134   12.8761 C.3     1  UNL1        0.0725
     22 C          68.3645   92.1987   14.0678 C.ar    1  UNL1        0.1248
     23 O          69.2017   93.1408   14.8813 O.2     1  UNL1       -0.4546
     24 C          68.3390   93.7040   15.9715 C.ar    1  UNL1        0.1792
     25 C          66.9687   93.1101   15.8319 C.ar    1  UNL1        0.0448
     26 C          66.9844   92.1798   14.6554 C.ar    1  UNL1        0.0512
     27 O          62.3423   88.9497   12.6510 O.3     1  UNL1       -0.4712
     28 C          62.5366   87.9740   11.5285 C.3     1  UNL1        0.2211
     29 C          62.3935   86.5023   11.7809 C.3     1  UNL1        0.0996
     30 N          61.4085   85.6973   10.9861 N.3     1  UNL1       -0.3190
     31 H          61.4439   84.7234   11.2870 H       1  UNL1        0.1189
     32 H          61.6426   85.7557    9.9950 H       1  UNL1        0.1189
     33 C          63.2355   85.8356   12.8282 C.3     1  UNL1        0.0479
     34 C          62.9075   84.4432   13.2797 C.2     1  UNL1        0.0079
     35 C          62.4077   84.0518   14.6387 C.2     1  UNL1        0.1448
     36 N          62.2131   82.5646   14.6504 N.2     1  UNL1       -0.2394
     37 C          62.5926   82.0368   13.2985 C.2     1  UNL1        0.0638
     38 C          62.6029   80.6490   12.7296 C.3     1  UNL1        0.0717
     39 C          63.0423   80.4222   11.3134 C.2     1  UNL1       -0.0198
     40 C          63.4714   81.5833   10.4663 C.2     1  UNL1       -0.0042
     41 C          63.4612   82.9712   11.0353 C.2     1  UNL1        0.0006
     42 C          63.0218   83.1979   12.4514 C.2     1  UNL1        0.0121
     43 C          62.1481   84.9840   15.7849 C.1     1  UNL1        0.1194
     44 N          61.8885   85.9162   16.9310 N.1     1  UNL1       -0.1893
@<TRIPOS>BOND
     1    21    22    1
     2    22    23   ar
     3    23    24   ar
     4    24    25   ar
     5    25    26   ar
     6    26     1    1
     7     1     2   ar
     8     2     3   ar
     9     3     4    1
    10     3     5   ar
    11     5    27    1
    12    27    28    1
    13    28    29    1
    14    29    30    1
    15    29    33    1
    16    33    34    1
    17    34    35    2
    18    35    43    1
    19    43    44    3
    20    35    36    1
    21    36    37    2
    22    37    38    1
    23    38    39    1
    24    39    40    2
    25    40    41    1
    26    41    42    2
    27     5     6   ar
    28     6     7   ar
    29     7    10    1
    30    10    11   ar
    31    11    12   ar
    32    12    13   ar
    33    13    14   ar
    34    14    15   ar
    35    15    16   ar
    36    16    17    1
    37    16    18   ar
    38    18    19   ar
    39    26    22   ar
    40     7     1   ar
    41    19    10   ar
    42    42    34    1
    43    18    13    1
    44    42    37    1
    45     4     8    1
    46     4     9    1
    47    30    31    1
    48    30    32    1
    49    19    20    1
@<TRIPOS>MOLECULE
*****
 44 49 0 0 0
SMALL
GASTEIGER

@<TRIPOS>ATOM
      1 C          66.1077   91.5233   14.0896 C.ar    1  UNL1        0.0870
      2 N          65.6305   90.2861   14.7908 N.ar    1  UNL1       -0.2279
      3 C          64.4511   89.5288   14.2564 C.ar    1  UNL1        0.1596
      4 N          63.9739   88.2916   14.9576 N.pl3   1  UNL1       -0.3402
      5 C          63.7490   90.0086   13.0207 C.ar    1  UNL1        0.1696
      6 C          64.2262   91.2457   12.3194 C.ar    1  UNL1        0.0428
      7 C          65.4055   92.0030   12.8539 C.ar    1  UNL1        0.0380
      8 H          64.4347   87.9767   15.7686 H       1  UNL1        0.1438
      9 H          63.1999   87.7945   14.6069 H       1  UNL1        0.1438
     10 C          65.8827   93.2402   12.1527 C.ar    1  UNL1        0.0777
     11 C          65.6985   94.5838   12.7935 C.ar    1  UNL1        0.1176
     12 N          66.1757   95.8210   12.0923 N.ar    1  UNL1       -0.2209
     13 C          66.8372   95.7145   10.7502 C.ar    1  UNL1        0.2006
     14 N          67.4054   96.7505    9.8263 N.ar    1  UNL1       -0.1272
     15 N          67.9409   96.0473    8.6144 N.ar    1  UNL1       -0.1493
     16 C          67.7035   94.5765    8.7894 C.ar    1  UNL1        0.0995
     17 C          68.0819   93.5004    7.8154 C.3     1  UNL1        0.0557
     18 C          67.0214   94.3709   10.1094 C.ar    1  UNL1        0.1101
     19 N          66.5442   93.1338   10.8106 N.ar    1  UNL1       -0.3484
     20 H          66.6651   92.2519   10.3900 H       1  UNL1        0.1661
     21 C          69.1056   91.5630   12.8011 C.3     1  UNL1        0.0725
     22 C          68.6650   92.2989   14.0317 C.ar    1  UNL1        0.1248
     23 O          69.5251   93.1822   14.8861 O.2     1  UNL1       -0.4546
     24 C          68.6786   93.7098   16.0064 C.ar    1  UNL1        0.1792
     25 C          67.2954   93.1526   15.8444 C.ar    1  UNL1        0.0448
     26 C          67.2870   92.2806   14.6240 C.ar    1  UNL1        0.0512
     27 O          62.5696   89.2512   12.4863 O.3     1  UNL1       -0.4712
     28 C          61.6907   89.8720   11.4413 C.3     1  UNL1        0.2211
     29 C          60.2320   89.5265   11.3865 C.3     1  UNL1        0.0996
     30 N          59.2001   90.5891   11.6236 N.3     1  UNL1       -0.3190
     31 H          58.2684   90.1808   11.5490 H       1  UNL1        0.1189
     32 H          59.3051   91.3264   10.9267 H       1  UNL1        0.1189
     33 C          59.8052   88.1184   11.0946 C.3     1  UNL1        0.0479
     34 C          60.6193   87.2647   10.1681 C.2     1  UNL1        0.0079
     35 C          60.6203   87.3423    8.6701 C.2     1  UNL1        0.1448
     36 N          61.5770   86.3092    8.1531 N.2     1  UNL1       -0.2394
     37 C          62.1673   85.5930    9.3315 C.2     1  UNL1        0.0638
     38 C          63.1672   84.4795    9.4315 C.3     1  UNL1        0.0717
     39 C          63.5753   83.9565   10.7768 C.2     1  UNL1       -0.0198
     40 C          62.9834   84.5470   12.0222 C.2     1  UNL1       -0.0042
     41 C          61.9835   85.6606   11.9222 C.2     1  UNL1        0.0006
     42 C          61.5754   86.1836   10.5769 C.2     1  UNL1        0.0121
     43 C          59.8074   88.2872    7.8356 C.1     1  UNL1        0.1194
     44 N          58.9945   89.2321    7.0012 N.1     1  UNL1       -0.1893
@<TRIPOS>BOND
     1    21    22    1
     2    22    23   ar
     3    23    24   ar
     4    24    25   ar
     5    25    26   ar
     6    26     1    1
     7     1     2   ar
     8     2     3   ar
     9     3     4    1
    10     3     5   ar
    11     5    27    1
    12    27    28    1
    13    28    29    1
    14    29    30    1
    15    29    33    1
    16    33    34    1
    17    34    35    2
    18    35    43    1
    19    43    44    3
    20    35    36    1
    21    36    37    2
    22    37    38    1
    23    38    39    1
    24    39    40    2
    25    40    41    1
    26    41    42    2
    27     5     6   ar
    28     6     7   ar
    29     7    10    1
    30    10    11   ar
    31    11    12   ar
    32    12    13   ar
    33    13    14   ar
    34    14    15   ar
    35    15    16   ar
    36    16    17    1
    37    16    18   ar
    38    18    19   ar
    39    26    22   ar
    40     7     1   ar
    41    19    10   ar
    42    42    34    1
    43    18    13    1
    44    42    37    1
    45     4     8    1
    46     4     9    1
    47    30    31    1
    48    30    32    1
    49    19    20    1
@<TRIPOS>MOLECULE
*****
 44 49 0 0 0
SMALL
GASTEIGER

@<TRIPOS>ATOM
      1 C          61.7097   86.9837    9.3279 C.ar    1  UNL1        0.0870
      2 N          61.3089   88.4223    9.1876 N.ar    1  UNL1       -0.2279
      3 C          61.4995   89.3693   10.3352 C.ar    1  UNL1        0.1596
      4 N          61.0988   90.8080   10.1949 N.pl3   1  UNL1       -0.3402
      5 C          62.0909   88.8776   11.6231 C.ar    1  UNL1        0.1696
      6 C          62.4916   87.4390   11.7634 C.ar    1  UNL1        0.0428
      7 C          62.3010   86.4921   10.6158 C.ar    1  UNL1        0.0380
      8 H          60.7106   91.1307    9.3496 H       1  UNL1        0.1438
      9 H          61.2238   91.4295   10.9481 H       1  UNL1        0.1438
     10 C          62.7017   85.0534   10.7561 C.ar    1  UNL1        0.0777
     11 C          63.6093   84.4252    9.7403 C.ar    1  UNL1        0.1176
     12 N          64.0100   82.9865    9.8806 N.ar    1  UNL1       -0.2209
     13 C          63.5033   82.1761   11.0366 C.ar    1  UNL1        0.2006
     14 N          63.7255   80.7470   11.4345 N.ar    1  UNL1       -0.1272
     15 N          62.9553   80.4919   12.6962 N.ar    1  UNL1       -0.1493
     16 C          62.2571   81.7635   13.0780 C.ar    1  UNL1        0.0995
     17 C          61.3750   81.9597   14.2753 C.3     1  UNL1        0.0557
     18 C          62.5957   82.8043   12.0523 C.ar    1  UNL1        0.1101
     19 N          62.1950   84.2430   11.9120 N.ar    1  UNL1       -0.3484
     20 H          61.5993   84.6553   12.5787 H       1  UNL1        0.1661
     21 C          58.8983   86.3822    7.7840 C.3     1  UNL1        0.0725
     22 C          60.2268   85.7602    7.4707 C.ar    1  UNL1        0.1248
     23 O          60.4963   84.7526    6.3927 O.2     1  UNL1       -0.4546
     24 C          61.9552   84.4063    6.4362 C.ar    1  UNL1        0.1792
     25 C          62.5873   85.1999    7.5410 C.ar    1  UNL1        0.0448
     26 C          61.5191   86.0367    8.1804 C.ar    1  UNL1        0.0512
     27 O          62.2814   89.8246   12.7707 O.3     1  UNL1       -0.4712
     28 C          63.3299   90.8946   12.6938 C.3     1  UNL1        0.2211
     29 C          64.5559   90.8063   13.5534 C.3     1  UNL1        0.0996
     30 N          65.3143   92.0508   13.9084 N.3     1  UNL1       -0.3190
     31 H          66.1132   91.8069   14.4938 H       1  UNL1        0.1189
     32 H          64.7021   92.6886   14.4171 H       1  UNL1        0.1189
     33 C          65.0237   89.4733   14.0581 C.3     1  UNL1        0.0479
     34 C          64.2452   88.7594   15.1231 C.2     1  UNL1        0.0079
     35 C          63.5147   89.4045   16.2634 C.2     1  UNL1        0.1448
     36 N          62.8786   88.3187   17.0798 N.2     1  UNL1       -0.2394
     37 C          63.2160   87.0026   16.4441 C.2     1  UNL1        0.0638
     38 C          62.8633   85.5914   16.8102 C.3     1  UNL1        0.0717
     39 C          63.3552   84.4526   15.9670 C.2     1  UNL1       -0.0198
     40 C          64.1998   84.7249   14.7577 C.2     1  UNL1       -0.0042
     41 C          64.5525   86.1361   14.3916 C.2     1  UNL1        0.0006
     42 C          64.0606   87.2750   15.2348 C.2     1  UNL1        0.0121
     43 C          63.4343   90.8768   16.5388 C.1     1  UNL1        0.1194
     44 N          63.3540   92.3491   16.8143 N.1     1  UNL1       -0.1893
@<TRIPOS>BOND
     1    21    22    1
     2    22    23   ar
     3    23    24   ar
     4    24    25   ar
     5    25    26   ar
     6    26     1    1
     7     1     2   ar
     8     2     3   ar
     9     3     4    1
    10     3     5   ar
    11     5    27    1
    12    27    28    1
    13    28    29    1
    14    29    30    1
    15    29    33    1
    16    33    34    1
    17    34    35    2
    18    35    43    1
    19    43    44    3
    20    35    36    1
    21    36    37    2
    22    37    38    1
    23    38    39    1
    24    39    40    2
    25    40    41    1
    26    41    42    2
    27     5     6   ar
    28     6     7   ar
    29     7    10    1
    30    10    11   ar
    31    11    12   ar
    32    12    13   ar
    33    13    14   ar
    34    14    15   ar
    35    15    16   ar
    36    16    17    1
    37    16    18   ar
    38    18    19   ar
    39    26    22   ar
    40     7     1   ar
    41    19    10   ar
    42    42    34    1
    43    18    13    1
    44    42    37    1
    45     4     8    1
    46     4     9    1
    47    30    31    1
    48    30    32    1
    49    19    20    1
@<TRIPOS>MOLECULE
*****
 44 49 0 0 0
SMALL
GASTEIGER

@<TRIPOS>ATOM
      1 C          66.0219   91.5078   14.0240 C.ar    1  UNL1        0.0870
      2 N          65.5268   90.2704   14.7122 N.ar    1  UNL1       -0.2279
      3 C          64.3466   89.5267   14.1607 C.ar    1  UNL1        0.1596
      4 N          63.8515   88.2893   14.8489 N.pl3   1  UNL1       -0.3402
      5 C          63.6614   90.0206   12.9210 C.ar    1  UNL1        0.1696
      6 C          64.1565   91.2581   12.2329 C.ar    1  UNL1        0.0428
      7 C          65.3368   92.0016   12.7844 C.ar    1  UNL1        0.0380
      8 H          64.3011   87.9652   15.6625 H       1  UNL1        0.1438
      9 H          63.0769   87.8012   14.4870 H       1  UNL1        0.1438
     10 C          65.8319   93.2391   12.0962 C.ar    1  UNL1        0.0777
     11 C          65.6532   94.5801   12.7442 C.ar    1  UNL1        0.1176
     12 N          66.1483   95.8175   12.0561 N.ar    1  UNL1       -0.2209
     13 C          66.8220   95.7141   10.7199 C.ar    1  UNL1        0.2006
     14 N          67.4086   96.7510    9.8086 N.ar    1  UNL1       -0.1272
     15 N          67.9498   96.0511    8.5974 N.ar    1  UNL1       -0.1493
     16 C          67.6977   94.5814    8.7601 C.ar    1  UNL1        0.0995
     17 C          68.0761   93.5084    7.7827 C.3     1  UNL1        0.0557
     18 C          67.0007   94.3731   10.0719 C.ar    1  UNL1        0.1101
     19 N          66.5056   93.1357   10.7601 N.ar    1  UNL1       -0.3484
     20 H          66.6228   92.2556   10.3348 H       1  UNL1        0.1661
     21 C          69.0272   91.5497   12.7529 C.3     1  UNL1        0.0725
     22 C          68.5835   92.2707   13.9912 C.ar    1  UNL1        0.1248
     23 O          69.4433   93.1375   14.8627 O.2     1  UNL1       -0.4546
     24 C          68.5933   93.6539   15.9855 C.ar    1  UNL1        0.1792
     25 C          67.2081   93.1063   15.8080 C.ar    1  UNL1        0.0448
     26 C          67.2021   92.2514   14.5755 C.ar    1  UNL1        0.0512
     27 O          62.4812   89.2770   12.3696 O.3     1  UNL1       -0.4712
     28 C          62.6924   88.1113   11.4495 C.3     1  UNL1        0.2211
     29 C          61.5838   87.6582   10.5464 C.3     1  UNL1        0.0996
     30 N          60.8422   88.6580    9.7094 N.3     1  UNL1       -0.3190
     31 H          60.1279   88.1791    9.1609 H       1  UNL1        0.1189
     32 H          61.4953   89.1270    9.0818 H       1  UNL1        0.1189
     33 C          61.2167   86.2053   10.4802 C.3     1  UNL1        0.0479
     34 C          62.2785   85.1560   10.6277 C.2     1  UNL1        0.0079
     35 C          63.0072   84.4755    9.5071 C.2     1  UNL1        0.1448
     36 N          63.9770   83.5020   10.1086 N.2     1  UNL1       -0.2394
     37 C          63.8476   83.5807   11.6009 C.2     1  UNL1        0.0638
     38 C          64.5500   82.8537   12.7090 C.3     1  UNL1        0.0717
     39 C          64.2026   83.1490   14.1380 C.2     1  UNL1       -0.0198
     40 C          63.1528   84.1712   14.4589 C.2     1  UNL1       -0.0042
     41 C          62.4504   84.8983   13.3508 C.2     1  UNL1        0.0006
     42 C          62.7978   84.6030   11.9217 C.2     1  UNL1        0.0121
     43 C          62.8022   84.7248    8.0422 C.1     1  UNL1        0.1194
     44 N          62.5973   84.9741    6.5773 N.1     1  UNL1       -0.1893
@<TRIPOS>BOND
     1    21    22    1
     2    22    23   ar
     3    23    24   ar
     4    24    25   ar
     5    25    26   ar
     6    26     1    1
     7     1     2   ar
     8     2     3   ar
     9     3     4    1
    10     3     5   ar
    11     5    27    1
    12    27    28    1
    13    28    29    1
    14    29    30    1
    15    29    33    1
    16    33    34    1
    17    34    35    2
    18    35    43    1
    19    43    44    3
    20    35    36    1
    21    36    37    2
    22    37    38    1
    23    38    39    1
    24    39    40    2
    25    40    41    1
    26    41    42    2
    27     5     6   ar
    28     6     7   ar
    29     7    10    1
    30    10    11   ar
    31    11    12   ar
    32    12    13   ar
    33    13    14   ar
    34    14    15   ar
    35    15    16   ar
    36    16    17    1
    37    16    18   ar
    38    18    19   ar
    39    26    22   ar
    40     7     1   ar
    41    19    10   ar
    42    42    34    1
    43    18    13    1
    44    42    37    1
    45     4     8    1
    46     4     9    1
    47    30    31    1
    48    30    32    1
    49    19    20    1
@<TRIPOS>MOLECULE
*****
 44 49 0 0 0
SMALL
GASTEIGER

@<TRIPOS>ATOM
      1 C          65.9757   91.5085   14.2310 C.ar    1  UNL1        0.0870
      2 N          65.4159   90.4213   15.0997 N.ar    1  UNL1       -0.2279
      3 C          64.1970   89.6645   14.6621 C.ar    1  UNL1        0.1596
      4 N          63.6372   88.5773   15.5308 N.pl3   1  UNL1       -0.3402
      5 C          63.5377   89.9950   13.3558 C.ar    1  UNL1        0.1696
      6 C          64.0975   91.0822   12.4871 C.ar    1  UNL1        0.0428
      7 C          65.3165   91.8390   12.9248 C.ar    1  UNL1        0.0380
      8 H          64.0699   88.3604   16.3881 H       1  UNL1        0.1438
      9 H          62.8372   88.0806   15.2436 H       1  UNL1        0.1438
     10 C          65.8762   92.9262   12.0561 C.ar    1  UNL1        0.0777
     11 C          65.5847   94.3633   12.3719 C.ar    1  UNL1        0.1176
     12 N          66.1444   95.4506   11.5032 N.ar    1  UNL1       -0.2209
     13 C          66.9957   95.1008   10.3188 C.ar    1  UNL1        0.2006
     14 N          67.6804   95.9497    9.2891 N.ar    1  UNL1       -0.1272
     15 N          68.3952   95.0374    8.3368 N.ar    1  UNL1       -0.1493
     16 C          68.1522   93.6245    8.7781 C.ar    1  UNL1        0.0995
     17 C          68.6812   92.3893    8.1115 C.3     1  UNL1        0.0557
     18 C          67.2873   93.6636   10.0031 C.ar    1  UNL1        0.1101
     19 N          66.7275   92.5764   10.8717 N.ar    1  UNL1       -0.3484
     20 H          66.9189   91.6332   10.6645 H       1  UNL1        0.1661
     21 C          68.9160   91.3900   12.8204 C.3     1  UNL1        0.0725
     22 C          68.5461   92.2108   14.0202 C.ar    1  UNL1        0.1248
     23 O          69.4628   93.1213   14.7822 O.2     1  UNL1       -0.4546
     24 C          68.6779   93.7384   15.9015 C.ar    1  UNL1        0.1792
     25 C          67.2760   93.2094   15.8313 C.ar    1  UNL1        0.0448
     26 C          67.1946   92.2653   14.6686 C.ar    1  UNL1        0.0512
     27 O          62.3188   89.2382   12.9182 O.3     1  UNL1       -0.4712
     28 C          61.8131   89.3788   11.5131 C.3     1  UNL1        0.2211
     29 C          60.5982   88.6167   11.0736 C.3     1  UNL1        0.0996
     30 N          59.4551   89.3379   10.4229 N.3     1  UNL1       -0.3190
     31 H          58.7198   88.6702   10.1909 H       1  UNL1        0.1189
     32 H          59.7816   89.7938    9.5709 H       1  UNL1        0.1189
     33 C          60.5263   87.1333   11.2847 C.3     1  UNL1        0.0479
     34 C          61.5022   86.2290   10.5920 C.2     1  UNL1        0.0079
     35 C          62.6898   85.5647   11.2231 C.2     1  UNL1        0.1448
     36 N          63.3834   84.7554   10.1677 N.2     1  UNL1       -0.2394
     37 C          62.6246   84.9196    8.8842 C.2     1  UNL1        0.0638
     38 C          62.8421   84.3574    7.5107 C.3     1  UNL1        0.0717
     39 C          61.8969   84.7060    6.3994 C.2     1  UNL1       -0.0198
     40 C          60.7342   85.6168    6.6616 C.2     1  UNL1       -0.0042
     41 C          60.5167   86.1789    8.0352 C.2     1  UNL1        0.0006
     42 C          61.4619   85.8303    9.1465 C.2     1  UNL1        0.0121
     43 C          63.1100   85.6880   12.6578 C.1     1  UNL1        0.1194
     44 N          63.5301   85.8113   14.0924 N.1     1  UNL1       -0.1893
@<TRIPOS>BOND
     1    21    22    1
     2    22    23   ar
     3    23    24   ar
     4    24    25   ar
     5    25    26   ar
     6    26     1    1
     7     1     2   ar
     8     2     3   ar
     9     3     4    1
    10     3     5   ar
    11     5    27    1
    12    27    28    1
    13    28    29    1
    14    29    30    1
    15    29    33    1
    16    33    34    1
    17    34    35    2
    18    35    43    1
    19    43    44    3
    20    35    36    1
    21    36    37    2
    22    37    38    1
    23    38    39    1
    24    39    40    2
    25    40    41    1
    26    41    42    2
    27     5     6   ar
    28     6     7   ar
    29     7    10    1
    30    10    11   ar
    31    11    12   ar
    32    12    13   ar
    33    13    14   ar
    34    14    15   ar
    35    15    16   ar
    36    16    17    1
    37    16    18   ar
    38    18    19   ar
    39    26    22   ar
    40     7     1   ar
    41    19    10   ar
    42    42    34    1
    43    18    13    1
    44    42    37    1
    45     4     8    1
    46     4     9    1
    47    30    31    1
    48    30    32    1
    49    19    20    1
@<TRIPOS>MOLECULE
*****
 44 49 0 0 0
SMALL
GASTEIGER

@<TRIPOS>ATOM
      1 C          63.5005   90.8236   12.4479 C.ar    1  UNL1        0.0870
      2 N          62.3050   90.0053   12.8369 N.ar    1  UNL1       -0.2279
      3 C          61.2821   89.6342   11.8045 C.ar    1  UNL1        0.1596
      4 N          60.0866   88.8159   12.1934 N.pl3   1  UNL1       -0.3402
      5 C          61.4547   90.0812   10.3830 C.ar    1  UNL1        0.1696
      6 C          62.6502   90.8995    9.9940 C.ar    1  UNL1        0.0428
      7 C          63.6730   91.2706   11.0266 C.ar    1  UNL1        0.0380
      8 H          59.9733   88.5225   13.1263 H       1  UNL1        0.1438
      9 H          59.4152   88.5723   11.5158 H       1  UNL1        0.1438
     10 C          64.8685   92.0889   10.6376 C.ar    1  UNL1        0.0777
     11 C          66.2155   91.4395   10.5193 C.ar    1  UNL1        0.1176
     12 N          67.4110   92.2578   10.1303 N.ar    1  UNL1       -0.2209
     13 C          67.2596   93.7253    9.8597 C.ar    1  UNL1        0.2006
     14 N          68.2490   94.7798    9.4610 N.ar    1  UNL1       -0.1272
     15 N          67.5137   96.0809    9.3328 N.ar    1  UNL1       -0.1493
     16 C          66.0696   95.8305    9.6524 C.ar    1  UNL1        0.0995
     17 C          64.9749   96.8559    9.6473 C.3     1  UNL1        0.0557
     18 C          65.9126   94.3747    9.9780 C.ar    1  UNL1        0.1101
     19 N          64.7171   93.5564   10.3670 N.ar    1  UNL1       -0.3484
     20 H          63.8330   93.9826   10.4446 H       1  UNL1        0.1661
     21 C          64.5964   88.8957   14.8420 C.3     1  UNL1        0.0725
     22 C          65.0271   90.3086   14.5808 C.ar    1  UNL1        0.1248
     23 O          66.0372   91.0834   15.3742 O.2     1  UNL1       -0.4546
     24 C          66.1576   92.4484   14.7641 C.ar    1  UNL1        0.1792
     25 C          65.2221   92.5173   13.5936 C.ar    1  UNL1        0.0448
     26 C          64.5234   91.1948   13.4804 C.ar    1  UNL1        0.0512
     27 O          60.4318   89.7101    9.3506 O.3     1  UNL1       -0.4712
     28 C          59.7907   88.3544    9.3836 C.3     1  UNL1        0.2211
     29 C          60.5400   87.1580    8.8765 C.3     1  UNL1        0.0996
     30 N          59.8193   86.0945    8.1022 N.3     1  UNL1       -0.3190
     31 H          60.4774   85.3614    7.8378 H       1  UNL1        0.1189
     32 H          59.4106   86.5036    7.2620 H       1  UNL1        0.1189
     33 C          62.0101   87.0250    9.1436 C.3     1  UNL1        0.0479
     34 C          62.5858   85.6932    9.5240 C.2     1  UNL1        0.0079
     35 C          62.9250   84.5774    8.5805 C.2     1  UNL1        0.1448
     36 N          63.4723   83.4379    9.3881 N.2     1  UNL1       -0.2394
     37 C          63.4713   83.8494   10.8305 C.2     1  UNL1        0.0638
     38 C          63.8985   83.1350   12.0783 C.3     1  UNL1        0.0717
     39 C          63.7778   83.8145   13.4101 C.2     1  UNL1       -0.0198
     40 C          63.2300   85.2083   13.4941 C.2     1  UNL1       -0.0042
     41 C          62.8028   85.9227   12.2463 C.2     1  UNL1        0.0006
     42 C          62.9234   85.2433   10.9145 C.2     1  UNL1        0.0121
     43 C          62.7481   84.5976    7.0912 C.1     1  UNL1        0.1194
     44 N          62.5711   84.6178    5.6018 N.1     1  UNL1       -0.1893
@<TRIPOS>BOND
     1    21    22    1
     2    22    23   ar
     3    23    24   ar
     4    24    25   ar
     5    25    26   ar
     6    26     1    1
     7     1     2   ar
     8     2     3   ar
     9     3     4    1
    10     3     5   ar
    11     5    27    1
    12    27    28    1
    13    28    29    1
    14    29    30    1
    15    29    33    1
    16    33    34    1
    17    34    35    2
    18    35    43    1
    19    43    44    3
    20    35    36    1
    21    36    37    2
    22    37    38    1
    23    38    39    1
    24    39    40    2
    25    40    41    1
    26    41    42    2
    27     5     6   ar
    28     6     7   ar
    29     7    10    1
    30    10    11   ar
    31    11    12   ar
    32    12    13   ar
    33    13    14   ar
    34    14    15   ar
    35    15    16   ar
    36    16    17    1
    37    16    18   ar
    38    18    19   ar
    39    26    22   ar
    40     7     1   ar
    41    19    10   ar
    42    42    34    1
    43    18    13    1
    44    42    37    1
    45     4     8    1
    46     4     9    1
    47    30    31    1
    48    30    32    1
    49    19    20    1
@<TRIPOS>MOLECULE
*****
 44 49 0 0 0
SMALL
GASTEIGER

@<TRIPOS>ATOM
      1 C          63.3443   83.8359   13.1937 C.ar    1  UNL1        0.0870
      2 N          63.6919   83.8825   14.6521 N.ar    1  UNL1       -0.2279
      3 C          63.8754   85.2041   15.3376 C.ar    1  UNL1        0.1596
      4 N          64.2231   85.2507   16.7960 N.pl3   1  UNL1       -0.3402
      5 C          63.7112   86.4791   14.5645 C.ar    1  UNL1        0.1696
      6 C          63.3636   86.4325   13.1061 C.ar    1  UNL1        0.0428
      7 C          63.1801   85.1109   12.4208 C.ar    1  UNL1        0.0380
      8 H          64.3308   84.4139   17.3033 H       1  UNL1        0.1438
      9 H          64.3435   86.1181   17.2458 H       1  UNL1        0.1438
     10 C          62.8324   85.0643   10.9624 C.ar    1  UNL1        0.0777
     11 C          63.7373   84.3566    9.9978 C.ar    1  UNL1        0.1176
     12 N          63.3897   84.3100    8.5394 N.ar    1  UNL1       -0.2209
     13 C          62.1371   84.9711    8.0455 C.ar    1  UNL1        0.2006
     14 N          61.5381   85.0899    6.6755 N.ar    1  UNL1       -0.1272
     15 N          60.2629   85.8710    6.7931 N.ar    1  UNL1       -0.1493
     16 C          60.0739   86.2350    8.2360 C.ar    1  UNL1        0.0995
     17 C          58.9278   87.0177    8.8050 C.3     1  UNL1        0.0557
     18 C          61.2322   85.6788    9.0100 C.ar    1  UNL1        0.1101
     19 N          61.5799   85.7254   10.4684 N.ar    1  UNL1       -0.3484
     20 H          60.9860   86.1899   11.1014 H       1  UNL1        0.1661
     21 C          61.3921   81.4159   14.1847 C.3     1  UNL1        0.0725
     22 C          62.2634   81.4020   12.9638 C.ar    1  UNL1        0.1248
     23 O          62.3905   80.2733   11.9840 O.2     1  UNL1       -0.4546
     24 C          63.3663   80.6882   10.9230 C.ar    1  UNL1        0.1792
     25 C          63.8423   82.0732   11.2470 C.ar    1  UNL1        0.0448
     26 C          63.1608   82.5144   12.5083 C.ar    1  UNL1        0.0512
     27 O          63.8947   87.8007   15.2500 O.3     1  UNL1       -0.4712
     28 C          64.5939   88.9225   14.5410 C.3     1  UNL1        0.2211
     29 C          64.1831   90.3424   14.7960 C.3     1  UNL1        0.0996
     30 N          63.3953   90.6860   16.0253 N.3     1  UNL1       -0.3190
     31 H          63.2042   91.6879   16.0376 H       1  UNL1        0.1189
     32 H          63.9316   90.4320   16.8549 H       1  UNL1        0.1189
     33 C          64.5601   91.4188   13.8215 C.3     1  UNL1        0.0479
     34 C          64.0522   91.3651   12.4112 C.2     1  UNL1        0.0079
     35 C          64.7070   91.9879   11.2139 C.2     1  UNL1        0.1448
     36 N          63.8598   91.6868   10.0133 N.2     1  UNL1       -0.2394
     37 C          62.6815   90.8779   10.4684 C.2     1  UNL1        0.0638
     38 C          61.5156   90.2967    9.7249 C.3     1  UNL1        0.0717
     39 C          60.4686   89.5167   10.4633 C.2     1  UNL1       -0.0198
     40 C          60.5875   89.3178   11.9453 C.2     1  UNL1       -0.0042
     41 C          61.7534   89.8990   12.6889 C.2     1  UNL1        0.0006
     42 C          62.8004   90.6790   11.9504 C.2     1  UNL1        0.0121
     43 C          65.9846   92.7738   11.2169 C.1     1  UNL1        0.1194
     44 N          67.2622   93.5598   11.2198 N.1     1  UNL1       -0.1893
@<TRIPOS>BOND
     1    21    22    1
     2    22    23   ar
     3    23    24   ar
     4    24    25   ar
     5    25    26   ar
     6    26     1    1
     7     1     2   ar
     8     2     3   ar
     9     3     4    1
    10     3     5   ar
    11     5    27    1
    12    27    28    1
    13    28    29    1
    14    29    30    1
    15    29    33    1
    16    33    34    1
    17    34    35    2
    18    35    43    1
    19    43    44    3
    20    35    36    1
    21    36    37    2
    22    37    38    1
    23    38    39    1
    24    39    40    2
    25    40    41    1
    26    41    42    2
    27     5     6   ar
    28     6     7   ar
    29     7    10    1
    30    10    11   ar
    31    11    12   ar
    32    12    13   ar
    33    13    14   ar
    34    14    15   ar
    35    15    16   ar
    36    16    17    1
    37    16    18   ar
    38    18    19   ar
    39    26    22   ar
    40     7     1   ar
    41    19    10   ar
    42    42    34    1
    43    18    13    1
    44    42    37    1
    45     4     8    1
    46     4     9    1
    47    30    31    1
    48    30    32    1
    49    19    20    1
@<TRIPOS>MOLECULE
*****
 44 49 0 0 0
SMALL
GASTEIGER

@<TRIPOS>ATOM
      1 C          63.7404   84.7669   12.6925 C.ar    1  UNL1        0.0870
      2 N          64.6897   84.6742   13.8502 N.ar    1  UNL1       -0.2279
      3 C          65.0418   85.9051   14.6319 C.ar    1  UNL1        0.1596
      4 N          65.9911   85.8123   15.7895 N.pl3   1  UNL1       -0.3402
      5 C          64.4445   87.2287   14.2558 C.ar    1  UNL1        0.1696
      6 C          63.4952   87.3215   13.0982 C.ar    1  UNL1        0.0428
      7 C          63.1432   86.0905   12.3165 C.ar    1  UNL1        0.0380
      8 H          66.3831   84.9436   16.0363 H       1  UNL1        0.1438
      9 H          66.2222   86.6202   16.3026 H       1  UNL1        0.1438
     10 C          62.1939   86.1832   11.1589 C.ar    1  UNL1        0.0777
     11 C          60.8809   86.8904   11.3204 C.ar    1  UNL1        0.1176
     12 N          59.9316   86.9831   10.1627 N.ar    1  UNL1       -0.2209
     13 C          60.2952   86.3687    8.8435 C.ar    1  UNL1        0.2006
     14 N          59.5679   86.3008    7.5335 N.ar    1  UNL1       -0.1272
     15 N          60.4313   85.5517    6.5621 N.ar    1  UNL1       -0.1493
     16 C          61.6923   85.1566    7.2721 C.ar    1  UNL1        0.0995
     17 C          62.8365   84.3911    6.6765 C.3     1  UNL1        0.0557
     18 C          61.6081   85.6616    8.6820 C.ar    1  UNL1        0.1101
     19 N          62.5574   85.5689    9.8397 N.ar    1  UNL1       -0.3484
     20 H          63.4192   85.1048    9.7336 H       1  UNL1        0.1661
     21 C          61.9130   82.2794   13.7518 C.3     1  UNL1        0.0725
     22 C          62.5484   82.3927   12.3978 C.ar    1  UNL1        0.1248
     23 O          62.4553   81.3824   11.2929 O.2     1  UNL1       -0.4546
     24 C          63.2378   81.9015   10.1231 C.ar    1  UNL1        0.1792
     25 C          63.8144   83.2325   10.5050 C.ar    1  UNL1        0.0448
     26 C          63.3883   83.5360   11.9108 C.ar    1  UNL1        0.0512
     27 O          64.7966   88.4596   15.0375 O.3     1  UNL1       -0.4712
     28 C          63.7302   89.4528   15.3929 C.3     1  UNL1        0.2211
     29 C          64.1083   90.8481   15.7932 C.3     1  UNL1        0.0996
     30 N          63.1136   91.7216   16.4985 N.3     1  UNL1       -0.3190
     31 H          63.5362   92.6292   16.6936 H       1  UNL1        0.1189
     32 H          62.8353   91.2806   17.3752 H       1  UNL1        0.1189
     33 C          65.4812   91.3699   15.4880 C.3     1  UNL1        0.0479
     34 C          65.7340   92.1132   14.2099 C.2     1  UNL1        0.0079
     35 C          66.7460   93.2020   14.0086 C.2     1  UNL1        0.1448
     36 N          66.6567   93.6599   12.5830 N.2     1  UNL1       -0.2394
     37 C          65.5896   92.8541   11.9033 C.2     1  UNL1        0.0638
     38 C          65.0634   92.8674   10.4987 C.3     1  UNL1        0.0717
     39 C          63.9671   91.9247   10.0996 C.2     1  UNL1       -0.0198
     40 C          63.3968   90.9688   11.1051 C.2     1  UNL1       -0.0042
     41 C          63.9230   90.9556   12.5097 C.2     1  UNL1        0.0006
     42 C          65.0193   91.8982   12.9088 C.2     1  UNL1        0.0121
     43 C          67.6828   93.7386   15.0500 C.1     1  UNL1        0.1194
     44 N          68.6195   94.2752   16.0914 N.1     1  UNL1       -0.1893
@<TRIPOS>BOND
     1    21    22    1
     2    22    23   ar
     3    23    24   ar
     4    24    25   ar
     5    25    26   ar
     6    26     1    1
     7     1     2   ar
     8     2     3   ar
     9     3     4    1
    10     3     5   ar
    11     5    27    1
    12    27    28    1
    13    28    29    1
    14    29    30    1
    15    29    33    1
    16    33    34    1
    17    34    35    2
    18    35    43    1
    19    43    44    3
    20    35    36    1
    21    36    37    2
    22    37    38    1
    23    38    39    1
    24    39    40    2
    25    40    41    1
    26    41    42    2
    27     5     6   ar
    28     6     7   ar
    29     7    10    1
    30    10    11   ar
    31    11    12   ar
    32    12    13   ar
    33    13    14   ar
    34    14    15   ar
    35    15    16   ar
    36    16    17    1
    37    16    18   ar
    38    18    19   ar
    39    26    22   ar
    40     7     1   ar
    41    19    10   ar
    42    42    34    1
    43    18    13    1
    44    42    37    1
    45     4     8    1
    46     4     9    1
    47    30    31    1
    48    30    32    1
    49    19    20    1
@<TRIPOS>MOLECULE
*****
 44 49 0 0 0
SMALL
GASTEIGER

@<TRIPOS>ATOM
      1 C          62.7988   84.3436   15.1650 C.ar    1  UNL1        0.0870
      2 N          62.7176   84.6657   16.6277 N.ar    1  UNL1       -0.2279
      3 C          62.9338   86.0734   17.0988 C.ar    1  UNL1        0.1596
      4 N          62.8526   86.3955   18.5615 N.pl3   1  UNL1       -0.3402
      5 C          63.2311   87.1589   16.1070 C.ar    1  UNL1        0.1696
      6 C          63.3122   86.8367   14.6443 C.ar    1  UNL1        0.0428
      7 C          63.0961   85.4290   14.1733 C.ar    1  UNL1        0.0380
      8 H          62.6575   85.6831   19.2124 H       1  UNL1        0.1438
      9 H          62.9944   87.3194   18.8707 H       1  UNL1        0.1438
     10 C          63.1773   85.1068   12.7106 C.ar    1  UNL1        0.0777
     11 C          64.1075   84.0329   12.2296 C.ar    1  UNL1        0.1176
     12 N          64.1887   83.7108   10.7669 N.ar    1  UNL1       -0.2209
     13 C          63.3397   84.4624    9.7851 C.ar    1  UNL1        0.2006
     14 N          63.2054   84.3665    8.2942 N.ar    1  UNL1       -0.1272
     15 N          62.1922   85.3810    7.8536 N.ar    1  UNL1       -0.1493
     16 C          61.7003   86.1041    9.0724 C.ar    1  UNL1        0.0995
     17 C          60.6785   87.2020    9.0936 C.3     1  UNL1        0.0557
     18 C          62.4094   85.5364   10.2660 C.ar    1  UNL1        0.1101
     19 N          62.3282   85.8585   11.7288 N.ar    1  UNL1       -0.3484
     20 H          61.7176   86.5634   12.0444 H       1  UNL1        0.1661
     21 C          65.1253   82.1119   14.6585 C.3     1  UNL1        0.0725
     22 C          63.6521   81.9102   14.4611 C.ar    1  UNL1        0.1248
     23 O          62.9896   80.6472   13.9962 O.2     1  UNL1       -0.4546
     24 C          61.5107   80.8925   13.9418 C.ar    1  UNL1        0.1792
     25 C          61.2593   82.3070   14.3729 C.ar    1  UNL1        0.0448
     26 C          62.5827   82.9360   14.6939 C.ar    1  UNL1        0.0512
     27 O          63.4472   88.5665   16.5781 O.3     1  UNL1       -0.4712
     28 C          63.3781   89.7030   15.6017 C.3     1  UNL1        0.2211
     29 C          64.1104   90.9810   15.8854 C.3     1  UNL1        0.0996
     30 N          63.4486   92.0625   16.6869 N.3     1  UNL1       -0.3190
     31 H          64.0856   92.8534   16.7820 H       1  UNL1        0.1189
     32 H          63.2118   91.7036   17.6119 H       1  UNL1        0.1189
     33 C          65.5044   91.1776   15.3675 C.3     1  UNL1        0.0479
     34 C          65.7333   91.9588   14.1077 C.2     1  UNL1        0.0079
     35 C          66.7508   93.0442   13.9158 C.2     1  UNL1        0.1448
     36 N          66.6311   93.5480   12.5080 N.2     1  UNL1       -0.2394
     37 C          65.5397   92.7741   11.8299 C.2     1  UNL1        0.0638
     38 C          64.9795   92.8368   10.4398 C.3     1  UNL1        0.0717
     39 C          63.8644   91.9174   10.0385 C.2     1  UNL1       -0.0198
     40 C          63.3095   90.9352   11.0271 C.2     1  UNL1       -0.0042
     41 C          63.8697   90.8725   12.4171 C.2     1  UNL1        0.0006
     42 C          64.9848   91.7919   12.8185 C.2     1  UNL1        0.0121
     43 C          67.7180   93.5388   14.9501 C.1     1  UNL1        0.1194
     44 N          68.6853   94.0334   15.9844 N.1     1  UNL1       -0.1893
@<TRIPOS>BOND
     1    21    22    1
     2    22    23   ar
     3    23    24   ar
     4    24    25   ar
     5    25    26   ar
     6    26     1    1
     7     1     2   ar
     8     2     3   ar
     9     3     4    1
    10     3     5   ar
    11     5    27    1
    12    27    28    1
    13    28    29    1
    14    29    30    1
    15    29    33    1
    16    33    34    1
    17    34    35    2
    18    35    43    1
    19    43    44    3
    20    35    36    1
    21    36    37    2
    22    37    38    1
    23    38    39    1
    24    39    40    2
    25    40    41    1
    26    41    42    2
    27     5     6   ar
    28     6     7   ar
    29     7    10    1
    30    10    11   ar
    31    11    12   ar
    32    12    13   ar
    33    13    14   ar
    34    14    15   ar
    35    15    16   ar
    36    16    17    1
    37    16    18   ar
    38    18    19   ar
    39    26    22   ar
    40     7     1   ar
    41    19    10   ar
    42    42    34    1
    43    18    13    1
    44    42    37    1
    45     4     8    1
    46     4     9    1
    47    30    31    1
    48    30    32    1
    49    19    20    1
