@<TRIPOS>MOLECULE
*****
 31 34 0 0 0
SMALL
GASTEIGER

@<TRIPOS>ATOM
      1 C          65.2468   92.2640   12.4191 C.ar    1  UNL1       -0.0004
      2 C          64.6992   91.5222   13.6022 C.ar    1  UNL1       -0.0024
      3 C          63.4741   90.6700   13.4516 C.ar    1  UNL1       -0.0002
      4 C          62.7965   90.5597   12.1180 C.ar    1  UNL1        0.0030
      5 C          61.5712   89.7074   11.9674 C.ar    1  UNL1        0.0369
      6 C          60.8936   89.5971   10.6338 C.ar    1  UNL1        0.1391
      7 C          61.4412   90.3390    9.4506 C.ar    1  UNL1        0.0369
      8 C          62.6664   91.1912    9.6012 C.ar    1  UNL1        0.0031
      9 C          63.3440   91.3015   10.9349 C.ar    1  UNL1       -0.0001
     10 C          64.5692   92.1537   11.0854 C.ar    1  UNL1       -0.0024
     11 C          66.4720   93.1162   12.5696 C.3     1  UNL1        0.1240
     12 N          67.3278   92.9895   13.7950 N.ar    1  UNL1       -0.3045
     13 C          67.2540   93.8580   15.0157 C.ar    1  UNL1        0.0983
     14 C          68.2883   93.3773   15.9899 C.ar    1  UNL1        0.1193
     15 N          69.0014   92.2116   15.3713 N.ar    1  UNL1       -0.2223
     16 C          68.4078   91.9720   14.0147 C.ar    1  UNL1        0.1788
     17 C          66.4243   95.5312   11.6127 C.3     1  UNL1        0.0197
     18 C          66.8414   94.0952   11.4948 C.3     1  UNL1        0.0827
     19 N          67.6278   93.6381   10.3020 N.3     1  UNL1       -0.2696
     20 C          68.2571   92.2764   10.2956 C.3     1  UNL1        0.0897
     21 C          67.7848   94.5426    9.1158 C.3     1  UNL1        0.0897
     22 O          59.6684   88.7449   10.4832 O.3     1  UNL1       -0.4706
     23 C          59.6978   87.5404    9.5897 C.3     1  UNL1        0.2320
     24 C          60.7817   86.5156    9.7478 C.ar    1  UNL1        0.0212
     25 C          61.4500   85.9378    8.5356 C.ar    1  UNL1       -0.0000
     26 C          62.5339   84.9130    8.6936 C.ar    1  UNL1        0.0101
     27 C          62.9495   84.4660   10.0638 C.ar    1  UNL1        0.0684
     28 C          62.2812   85.0439   11.2760 C.ar    1  UNL1        0.0101
     29 C          61.1973   86.0687   11.1180 C.ar    1  UNL1       -0.0000
     30 C          64.0334   83.4413   10.2218 C.1     1  UNL1        0.1004
     31 N          65.1173   82.4165   10.3798 N.1     1  UNL1       -0.1908
@<TRIPOS>BOND
     1    17    18    1
     2    18    11    1
     3    11     1    1
     4     1     2   ar
     5     2     3   ar
     6     3     4   ar
     7     4     5   ar
     8     5     6   ar
     9     6    22    1
    10    22    23    1
    11    23    24    1
    12    24    25   ar
    13    25    26   ar
    14    26    27   ar
    15    27    30    1
    16    30    31    3
    17    27    28   ar
    18    28    29   ar
    19     6     7   ar
    20     7     8   ar
    21     8     9   ar
    22     9    10   ar
    23    11    12    1
    24    12    13   ar
    25    13    14   ar
    26    14    15   ar
    27    15    16   ar
    28    18    19    1
    29    19    20    1
    30    19    21    1
    31    10     1   ar
    32    16    12   ar
    33     9     4   ar
    34    29    24   ar
@<TRIPOS>MOLECULE
*****
 31 34 0 0 0
SMALL
GASTEIGER

@<TRIPOS>ATOM
      1 C          65.1855   92.0817   12.4400 C.ar    1  UNL1       -0.0004
      2 C          64.8570   91.0221   13.4497 C.ar    1  UNL1       -0.0024
      3 C          63.7817   90.0174   13.1597 C.ar    1  UNL1       -0.0002
      4 C          63.0348   90.0723   11.8600 C.ar    1  UNL1        0.0030
      5 C          61.9594   89.0675   11.5700 C.ar    1  UNL1        0.0369
      6 C          61.2125   89.1224   10.2704 C.ar    1  UNL1        0.1391
      7 C          61.5410   90.1820    9.2607 C.ar    1  UNL1        0.0369
      8 C          62.6163   91.1867    9.5507 C.ar    1  UNL1        0.0031
      9 C          63.3632   91.1318   10.8504 C.ar    1  UNL1       -0.0001
     10 C          64.4386   92.1365   11.1404 C.ar    1  UNL1       -0.0024
     11 C          66.2609   93.0865   12.7300 C.3     1  UNL1        0.1240
     12 N          66.5640   94.1685   11.7364 N.ar    1  UNL1       -0.3045
     13 C          67.1997   93.9775   10.3912 C.ar    1  UNL1        0.0983
     14 C          67.3132   95.3224    9.7369 C.ar    1  UNL1        0.1193
     15 N          66.7476   96.3447   10.6776 N.ar    1  UNL1       -0.2223
     16 C          66.2846   95.6316   11.9133 C.ar    1  UNL1        0.1788
     17 C          66.4029   93.4639   15.2966 C.3     1  UNL1        0.0197
     18 C          67.0331   93.0092   14.0136 C.3     1  UNL1        0.0827
     19 N          68.4356   92.4772   14.0142 N.3     1  UNL1       -0.2696
     20 C          69.3481   92.7693   15.1685 C.3     1  UNL1        0.0897
     21 C          68.9257   91.6531   12.8607 C.3     1  UNL1        0.0897
     22 O          60.1371   88.1177    9.9804 O.3     1  UNL1       -0.4706
     23 C          60.4652   86.8656    9.2222 C.3     1  UNL1        0.2320
     24 C          61.4391   85.8772    9.7920 C.ar    1  UNL1        0.0212
     25 C          61.4646   85.6156   11.2688 C.ar    1  UNL1       -0.0000
     26 C          62.4385   84.6272   11.8387 C.ar    1  UNL1        0.0101
     27 C          63.3868   83.9005   10.9317 C.ar    1  UNL1        0.0684
     28 C          63.3612   84.1621    9.4549 C.ar    1  UNL1        0.0101
     29 C          62.3874   85.1505    8.8851 C.ar    1  UNL1       -0.0000
     30 C          64.3606   82.9121   11.5015 C.1     1  UNL1        0.1004
     31 N          65.3345   81.9237   12.0713 N.1     1  UNL1       -0.1908
@<TRIPOS>BOND
     1    17    18    1
     2    18    11    1
     3    11     1    1
     4     1     2   ar
     5     2     3   ar
     6     3     4   ar
     7     4     5   ar
     8     5     6   ar
     9     6    22    1
    10    22    23    1
    11    23    24    1
    12    24    25   ar
    13    25    26   ar
    14    26    27   ar
    15    27    30    1
    16    30    31    3
    17    27    28   ar
    18    28    29   ar
    19     6     7   ar
    20     7     8   ar
    21     8     9   ar
    22     9    10   ar
    23    11    12    1
    24    12    13   ar
    25    13    14   ar
    26    14    15   ar
    27    15    16   ar
    28    18    19    1
    29    19    20    1
    30    19    21    1
    31    10     1   ar
    32    16    12   ar
    33     9     4   ar
    34    29    24   ar
@<TRIPOS>MOLECULE
*****
 31 34 0 0 0
SMALL
GASTEIGER

@<TRIPOS>ATOM
      1 C          63.3113   89.6470   12.5857 C.ar    1  UNL1       -0.0004
      2 C          62.6482   90.8680   12.0205 C.ar    1  UNL1       -0.0024
      3 C          61.7388   90.7462   10.8339 C.ar    1  UNL1       -0.0002
      4 C          61.4925   89.4034   10.2125 C.ar    1  UNL1        0.0030
      5 C          60.5830   89.2817    9.0258 C.ar    1  UNL1        0.0369
      6 C          60.3367   87.9389    8.4043 C.ar    1  UNL1        0.1391
      7 C          60.9997   86.7179    8.9696 C.ar    1  UNL1        0.0369
      8 C          61.9091   86.8396   10.1562 C.ar    1  UNL1        0.0031
      9 C          62.1555   88.1824   10.7776 C.ar    1  UNL1       -0.0001
     10 C          63.0649   88.3042   11.9643 C.ar    1  UNL1       -0.0024
     11 C          64.2207   89.7687   13.7724 C.3     1  UNL1        0.1240
     12 N          65.2470   90.8616   13.8218 N.ar    1  UNL1       -0.3045
     13 C          65.3477   92.0201   12.8743 C.ar    1  UNL1        0.0983
     14 C          66.5157   92.8623   13.2942 C.ar    1  UNL1        0.1193
     15 N          67.1369   92.2244   14.5013 N.ar    1  UNL1       -0.2223
     16 C          66.3528   90.9879   14.8274 C.ar    1  UNL1        0.1788
     17 C          64.6224   87.3984   14.7573 C.3     1  UNL1        0.0197
     18 C          64.1039   88.7977   14.9096 C.3     1  UNL1        0.0827
     19 N          63.4684   89.2258   16.1992 N.3     1  UNL1       -0.2696
     20 C          63.2906   90.6847   16.4996 C.3     1  UNL1        0.0897
     21 C          63.0109   88.1952   17.1883 C.3     1  UNL1        0.0897
     22 O          59.4273   87.8171    7.2177 O.3     1  UNL1       -0.4706
     23 C          58.4359   88.9023    6.9180 C.3     1  UNL1        0.2320
     24 C          58.8021   90.0147    5.9809 C.ar    1  UNL1        0.0212
     25 C          60.2375   90.2393    5.6079 C.ar    1  UNL1       -0.0000
     26 C          60.6037   91.3518    4.6708 C.ar    1  UNL1        0.0101
     27 C          59.5345   92.2397    4.1066 C.ar    1  UNL1        0.0684
     28 C          58.0990   92.0151    4.4795 C.ar    1  UNL1        0.0101
     29 C          57.7328   90.9027    5.4167 C.ar    1  UNL1       -0.0000
     30 C          59.9007   93.3522    3.1694 C.1     1  UNL1        0.1004
     31 N          60.2668   94.4647    2.2323 N.1     1  UNL1       -0.1908
@<TRIPOS>BOND
     1    17    18    1
     2    18    11    1
     3    11     1    1
     4     1     2   ar
     5     2     3   ar
     6     3     4   ar
     7     4     5   ar
     8     5     6   ar
     9     6    22    1
    10    22    23    1
    11    23    24    1
    12    24    25   ar
    13    25    26   ar
    14    26    27   ar
    15    27    30    1
    16    30    31    3
    17    27    28   ar
    18    28    29   ar
    19     6     7   ar
    20     7     8   ar
    21     8     9   ar
    22     9    10   ar
    23    11    12    1
    24    12    13   ar
    25    13    14   ar
    26    14    15   ar
    27    15    16   ar
    28    18    19    1
    29    19    20    1
    30    19    21    1
    31    10     1   ar
    32    16    12   ar
    33     9     4   ar
    34    29    24   ar
@<TRIPOS>MOLECULE
*****
 31 34 0 0 0
SMALL
GASTEIGER

@<TRIPOS>ATOM
      1 C          65.5796   92.9403   11.5517 C.ar    1  UNL1       -0.0004
      2 C          64.5424   92.0913   10.8784 C.ar    1  UNL1       -0.0024
      3 C          63.7148   91.1365   11.6867 C.ar    1  UNL1       -0.0002
      4 C          63.9245   91.0306   13.1682 C.ar    1  UNL1        0.0030
      5 C          63.0968   90.0757   13.9764 C.ar    1  UNL1        0.0369
      6 C          63.3064   89.9698   15.4579 C.ar    1  UNL1        0.1391
      7 C          64.3438   90.8189   16.1312 C.ar    1  UNL1        0.0369
      8 C          65.1713   91.7737   15.3229 C.ar    1  UNL1        0.0031
      9 C          64.9617   91.8796   13.8414 C.ar    1  UNL1       -0.0001
     10 C          65.7893   92.8344   13.0332 C.ar    1  UNL1       -0.0024
     11 C          66.4073   93.8952   10.7434 C.3     1  UNL1        0.1240
     12 N          67.3731   93.3717    9.7221 N.ar    1  UNL1       -0.3045
     13 C          68.2682   92.1791    9.8848 C.ar    1  UNL1        0.0983
     14 C          69.0617   92.0192    8.6220 C.ar    1  UNL1        0.1193
     15 N          68.6571   93.1131    7.6787 N.ar    1  UNL1       -0.2223
     16 C          67.6135   93.9489    8.3586 C.ar    1  UNL1        0.1788
     17 C          66.4226   95.9505   12.3326 C.3     1  UNL1        0.0197
     18 C          66.2691   95.3735   10.9565 C.3     1  UNL1        0.0827
     19 N          65.9774   96.2749    9.7936 N.3     1  UNL1       -0.2696
     20 C          67.1054   96.8535    8.9918 C.3     1  UNL1        0.0897
     21 C          64.5578   96.5977    9.4325 C.3     1  UNL1        0.0897
     22 O          62.4788   89.0150   16.2662 O.3     1  UNL1       -0.4706
     23 C          63.1312   87.8500   16.9497 C.3     1  UNL1        0.2320
     24 C          63.2916   86.5477   16.2229 C.ar    1  UNL1        0.0212
     25 C          62.3823   85.3968   16.5366 C.ar    1  UNL1       -0.0000
     26 C          62.5427   84.0944   15.8098 C.ar    1  UNL1        0.0101
     27 C          63.6125   83.9431   14.7693 C.ar    1  UNL1        0.0684
     28 C          64.5219   85.0941   14.4556 C.ar    1  UNL1        0.0101
     29 C          64.3614   86.3964   15.1824 C.ar    1  UNL1       -0.0000
     30 C          63.7729   82.6408   14.0424 C.1     1  UNL1        0.1004
     31 N          63.9334   81.3385   13.3156 N.1     1  UNL1       -0.1908
@<TRIPOS>BOND
     1    17    18    1
     2    18    11    1
     3    11     1    1
     4     1     2   ar
     5     2     3   ar
     6     3     4   ar
     7     4     5   ar
     8     5     6   ar
     9     6    22    1
    10    22    23    1
    11    23    24    1
    12    24    25   ar
    13    25    26   ar
    14    26    27   ar
    15    27    30    1
    16    30    31    3
    17    27    28   ar
    18    28    29   ar
    19     6     7   ar
    20     7     8   ar
    21     8     9   ar
    22     9    10   ar
    23    11    12    1
    24    12    13   ar
    25    13    14   ar
    26    14    15   ar
    27    15    16   ar
    28    18    19    1
    29    19    20    1
    30    19    21    1
    31    10     1   ar
    32    16    12   ar
    33     9     4   ar
    34    29    24   ar
@<TRIPOS>MOLECULE
*****
 31 34 0 0 0
SMALL
GASTEIGER

@<TRIPOS>ATOM
      1 C          61.3098   93.1203    2.1710 C.ar    1  UNL1       -0.0004
      2 C          62.4200   92.2814    2.7309 C.ar    1  UNL1       -0.0024
      3 C          62.1456   91.3286    3.8565 C.ar    1  UNL1       -0.0002
      4 C          60.7611   91.2149    4.4222 C.ar    1  UNL1        0.0030
      5 C          60.4868   90.2621    5.5479 C.ar    1  UNL1        0.0369
      6 C          59.1022   90.1483    6.1136 C.ar    1  UNL1        0.1391
      7 C          57.9919   90.9873    5.5536 C.ar    1  UNL1        0.0369
      8 C          58.2663   91.9400    4.4280 C.ar    1  UNL1        0.0031
      9 C          59.6508   92.0538    3.8623 C.ar    1  UNL1       -0.0001
     10 C          59.9252   93.0065    2.7367 C.ar    1  UNL1       -0.0024
     11 C          61.5841   94.0731    1.0454 C.3     1  UNL1        0.1240
     12 N          62.9615   94.6368    0.8588 N.ar    1  UNL1       -0.3045
     13 C          63.5490   95.7955    1.6087 C.ar    1  UNL1        0.0983
     14 C          64.9439   96.0157    1.1030 C.ar    1  UNL1        0.1193
     15 N          65.2185   94.9931    0.0405 N.ar    1  UNL1       -0.2223
     16 C          63.9934   94.1409   -0.1104 C.ar    1  UNL1        0.1788
     17 C          59.7044   95.7234    0.3430 C.3     1  UNL1        0.0197
     18 C          60.4810   94.4620    0.1063 C.3     1  UNL1        0.0827
     19 N          60.1544   93.5897   -1.0694 N.3     1  UNL1       -0.2696
     20 C          60.9330   93.7267   -2.3442 C.3     1  UNL1        0.0897
     21 C          59.0492   92.5803   -0.9703 C.3     1  UNL1        0.0897
     22 O          58.8278   89.1956    7.2392 O.3     1  UNL1       -0.4706
     23 C          59.4182   87.8168    7.2156 C.3     1  UNL1        0.2320
     24 C          60.1810   87.3071    8.4023 C.ar    1  UNL1        0.0212
     25 C          61.1918   86.2123    8.2304 C.ar    1  UNL1       -0.0000
     26 C          61.9546   85.7026    9.4171 C.ar    1  UNL1        0.0101
     27 C          61.7066   86.2878   10.7758 C.ar    1  UNL1        0.0684
     28 C          60.6958   87.3827   10.9478 C.ar    1  UNL1        0.0101
     29 C          59.9330   87.8924    9.7610 C.ar    1  UNL1       -0.0000
     30 C          62.4694   85.7781   11.9626 C.1     1  UNL1        0.1004
     31 N          63.2322   85.2685   13.1493 N.1     1  UNL1       -0.1908
@<TRIPOS>BOND
     1    17    18    1
     2    18    11    1
     3    11     1    1
     4     1     2   ar
     5     2     3   ar
     6     3     4   ar
     7     4     5   ar
     8     5     6   ar
     9     6    22    1
    10    22    23    1
    11    23    24    1
    12    24    25   ar
    13    25    26   ar
    14    26    27   ar
    15    27    30    1
    16    30    31    3
    17    27    28   ar
    18    28    29   ar
    19     6     7   ar
    20     7     8   ar
    21     8     9   ar
    22     9    10   ar
    23    11    12    1
    24    12    13   ar
    25    13    14   ar
    26    14    15   ar
    27    15    16   ar
    28    18    19    1
    29    19    20    1
    30    19    21    1
    31    10     1   ar
    32    16    12   ar
    33     9     4   ar
    34    29    24   ar
@<TRIPOS>MOLECULE
*****
 31 34 0 0 0
SMALL
GASTEIGER

@<TRIPOS>ATOM
      1 C          65.5162   92.3005   12.5972 C.ar    1  UNL1       -0.0004
      2 C          65.1779   91.4866   13.8109 C.ar    1  UNL1       -0.0024
      3 C          64.0468   90.5027   13.7627 C.ar    1  UNL1       -0.0002
      4 C          63.2539   90.3326   12.5007 C.ar    1  UNL1        0.0030
      5 C          62.1228   89.3486   12.4526 C.ar    1  UNL1        0.0369
      6 C          61.3299   89.1785   11.1906 C.ar    1  UNL1        0.1391
      7 C          61.6682   89.9925    9.9769 C.ar    1  UNL1        0.0369
      8 C          62.7993   90.9764   10.0251 C.ar    1  UNL1        0.0031
      9 C          63.5922   91.1465   11.2870 C.ar    1  UNL1       -0.0001
     10 C          64.7233   92.1304   11.3353 C.ar    1  UNL1       -0.0024
     11 C          66.6474   93.2845   12.6454 C.3     1  UNL1        0.1240
     12 N          67.6329   93.2395   13.7752 N.ar    1  UNL1       -0.3045
     13 C          67.5561   94.0351   15.0445 C.ar    1  UNL1        0.0983
     14 C          68.7441   93.6783   15.8879 C.ar    1  UNL1        0.1193
     15 N          69.5552   92.6621   15.1399 N.ar    1  UNL1       -0.2223
     16 C          68.8684   92.3909   13.8342 C.ar    1  UNL1        0.1788
     17 C          66.2100   95.6833   11.7483 C.3     1  UNL1        0.0197
     18 C          66.7929   94.3135   11.5637 C.3     1  UNL1        0.0827
     19 N          67.5213   93.9728   10.2975 N.3     1  UNL1       -0.2696
     20 C          67.6441   94.9934    9.2050 C.3     1  UNL1        0.0897
     21 C          68.1270   92.6116   10.1237 C.3     1  UNL1        0.0897
     22 O          60.1988   88.1946   11.1424 O.3     1  UNL1       -0.4706
     23 C          60.4837   86.7323   10.9668 C.3     1  UNL1        0.2320
     24 C          60.8233   86.1922    9.6093 C.ar    1  UNL1        0.0212
     25 C          62.1776   85.5993    9.3554 C.ar    1  UNL1       -0.0000
     26 C          62.5173   85.0591    7.9979 C.ar    1  UNL1        0.0101
     27 C          61.5028   85.1118    6.8943 C.ar    1  UNL1        0.0684
     28 C          60.1485   85.7047    7.1482 C.ar    1  UNL1        0.0101
     29 C          59.8088   86.2449    8.5057 C.ar    1  UNL1       -0.0000
     30 C          61.8425   84.5717    5.5368 C.1     1  UNL1        0.1004
     31 N          62.1822   84.0315    4.1793 N.1     1  UNL1       -0.1908
@<TRIPOS>BOND
     1    17    18    1
     2    18    11    1
     3    11     1    1
     4     1     2   ar
     5     2     3   ar
     6     3     4   ar
     7     4     5   ar
     8     5     6   ar
     9     6    22    1
    10    22    23    1
    11    23    24    1
    12    24    25   ar
    13    25    26   ar
    14    26    27   ar
    15    27    30    1
    16    30    31    3
    17    27    28   ar
    18    28    29   ar
    19     6     7   ar
    20     7     8   ar
    21     8     9   ar
    22     9    10   ar
    23    11    12    1
    24    12    13   ar
    25    13    14   ar
    26    14    15   ar
    27    15    16   ar
    28    18    19    1
    29    19    20    1
    30    19    21    1
    31    10     1   ar
    32    16    12   ar
    33     9     4   ar
    34    29    24   ar
@<TRIPOS>MOLECULE
*****
 31 34 0 0 0
SMALL
GASTEIGER

@<TRIPOS>ATOM
      1 C          61.3458   93.1129    2.1556 C.ar    1  UNL1       -0.0004
      2 C          62.4488   92.2685    2.7214 C.ar    1  UNL1       -0.0024
      3 C          62.1647   91.3206    3.8487 C.ar    1  UNL1       -0.0002
      4 C          60.7776   91.2172    4.4101 C.ar    1  UNL1        0.0030
      5 C          60.4935   90.2692    5.5374 C.ar    1  UNL1        0.0369
      6 C          59.1064   90.1658    6.0988 C.ar    1  UNL1        0.1391
      7 C          58.0033   91.0103    5.5329 C.ar    1  UNL1        0.0369
      8 C          58.2874   91.9581    4.4057 C.ar    1  UNL1        0.0031
      9 C          59.6745   92.0616    3.8442 C.ar    1  UNL1       -0.0001
     10 C          59.9586   93.0095    2.7170 C.ar    1  UNL1       -0.0024
     11 C          61.6298   94.0609    1.0282 C.3     1  UNL1        0.1240
     12 N          60.5777   94.3335   -0.0055 N.ar    1  UNL1       -0.3045
     13 C          59.6767   95.5319   -0.0518 C.ar    1  UNL1        0.0983
     14 C          58.7840   95.3947   -1.2495 C.ar    1  UNL1        0.1193
     15 N          59.1333   94.1115   -1.9433 N.ar    1  UNL1       -0.2223
     16 C          60.2418   93.4557   -1.1746 C.ar    1  UNL1        0.1788
     17 C          63.2180   96.0080    1.6891 C.3     1  UNL1        0.0197
     18 C          62.9659   94.7361    0.9348 C.3     1  UNL1        0.0827
     19 N          64.0501   94.1396    0.0869 N.3     1  UNL1       -0.2696
     20 C          65.2607   93.5345    0.7338 C.3     1  UNL1        0.0897
     21 C          63.9237   94.1481   -1.4077 C.3     1  UNL1        0.0897
     22 O          58.8223   89.2179    7.2261 O.3     1  UNL1       -0.4706
     23 C          59.4037   87.8352    7.2080 C.3     1  UNL1        0.2320
     24 C          60.1644   87.3258    8.3961 C.ar    1  UNL1        0.0212
     25 C          59.9439   87.9393    9.7471 C.ar    1  UNL1       -0.0000
     26 C          60.7046   87.4299   10.9353 C.ar    1  UNL1        0.0101
     27 C          61.6859   86.3071   10.7726 C.ar    1  UNL1        0.0684
     28 C          61.9064   85.6937    9.4216 C.ar    1  UNL1        0.0101
     29 C          61.1457   86.2031    8.2334 C.ar    1  UNL1       -0.0000
     30 C          62.4466   85.7978   11.9608 C.1     1  UNL1        0.1004
     31 N          63.2073   85.2884   13.1489 N.1     1  UNL1       -0.1908
@<TRIPOS>BOND
     1    17    18    1
     2    18    11    1
     3    11     1    1
     4     1     2   ar
     5     2     3   ar
     6     3     4   ar
     7     4     5   ar
     8     5     6   ar
     9     6    22    1
    10    22    23    1
    11    23    24    1
    12    24    25   ar
    13    25    26   ar
    14    26    27   ar
    15    27    30    1
    16    30    31    3
    17    27    28   ar
    18    28    29   ar
    19     6     7   ar
    20     7     8   ar
    21     8     9   ar
    22     9    10   ar
    23    11    12    1
    24    12    13   ar
    25    13    14   ar
    26    14    15   ar
    27    15    16   ar
    28    18    19    1
    29    19    20    1
    30    19    21    1
    31    10     1   ar
    32    16    12   ar
    33     9     4   ar
    34    29    24   ar
@<TRIPOS>MOLECULE
*****
 31 34 0 0 0
SMALL
GASTEIGER

@<TRIPOS>ATOM
      1 C          61.2519   93.1553    2.2291 C.ar    1  UNL1       -0.0004
      2 C          62.3576   92.2998    2.7725 C.ar    1  UNL1       -0.0024
      3 C          62.0779   91.3260    3.8786 C.ar    1  UNL1       -0.0002
      4 C          60.6924   91.2077    4.4412 C.ar    1  UNL1        0.0030
      5 C          60.4128   90.2339    5.5473 C.ar    1  UNL1        0.0369
      6 C          59.0273   90.1155    6.1099 C.ar    1  UNL1        0.1391
      7 C          57.9215   90.9711    5.5663 C.ar    1  UNL1        0.0369
      8 C          58.2012   91.9449    4.4603 C.ar    1  UNL1        0.0031
      9 C          59.5867   92.0632    3.8977 C.ar    1  UNL1       -0.0001
     10 C          59.8664   93.0370    2.7916 C.ar    1  UNL1       -0.0024
     11 C          61.5316   94.1292    1.1229 C.3     1  UNL1        0.1240
     12 N          62.9249   94.6423    0.9099 N.ar    1  UNL1       -0.3045
     13 C          63.5677   95.7800    1.6463 C.ar    1  UNL1        0.0983
     14 C          64.9601   95.9486    1.1146 C.ar    1  UNL1        0.1193
     15 N          65.1779   94.9150    0.0496 N.ar    1  UNL1       -0.2223
     16 C          63.9201   94.1077   -0.0769 C.ar    1  UNL1        0.1788
     17 C          59.6525   95.8352    0.5671 C.3     1  UNL1        0.0197
     18 C          60.4179   94.5899    0.2299 C.3     1  UNL1        0.0827
     19 N          60.0697   93.8055   -1.0003 N.3     1  UNL1       -0.2696
     20 C          60.4015   94.3521   -2.3572 C.3     1  UNL1        0.0897
     21 C          59.3897   92.4746   -0.8736 C.3     1  UNL1        0.0897
     22 O          58.7476   89.1417    7.2160 O.3     1  UNL1       -0.4706
     23 C          59.8540   88.2884    7.7616 C.3     1  UNL1        0.2320
     24 C          60.5676   88.6973    9.0160 C.ar    1  UNL1        0.0212
     25 C          61.7006   87.8653    9.5395 C.ar    1  UNL1       -0.0000
     26 C          62.4142   88.2742   10.7940 C.ar    1  UNL1        0.0101
     27 C          61.9948   89.5151   11.5249 C.ar    1  UNL1        0.0684
     28 C          60.8618   90.3472   11.0013 C.ar    1  UNL1        0.0101
     29 C          60.1482   89.9382    9.7469 C.ar    1  UNL1       -0.0000
     30 C          62.7084   89.9241   12.7792 C.1     1  UNL1        0.1004
     31 N          63.4219   90.3330   14.0336 N.1     1  UNL1       -0.1908
@<TRIPOS>BOND
     1    17    18    1
     2    18    11    1
     3    11     1    1
     4     1     2   ar
     5     2     3   ar
     6     3     4   ar
     7     4     5   ar
     8     5     6   ar
     9     6    22    1
    10    22    23    1
    11    23    24    1
    12    24    25   ar
    13    25    26   ar
    14    26    27   ar
    15    27    30    1
    16    30    31    3
    17    27    28   ar
    18    28    29   ar
    19     6     7   ar
    20     7     8   ar
    21     8     9   ar
    22     9    10   ar
    23    11    12    1
    24    12    13   ar
    25    13    14   ar
    26    14    15   ar
    27    15    16   ar
    28    18    19    1
    29    19    20    1
    30    19    21    1
    31    10     1   ar
    32    16    12   ar
    33     9     4   ar
    34    29    24   ar
@<TRIPOS>MOLECULE
*****
 31 34 0 0 0
SMALL
GASTEIGER

@<TRIPOS>ATOM
      1 C          65.6196   92.0516   12.1075 C.ar    1  UNL1       -0.0004
      2 C          65.1904   91.4235   13.4003 C.ar    1  UNL1       -0.0024
      3 C          63.8834   90.6921   13.4812 C.ar    1  UNL1       -0.0002
      4 C          63.0055   90.5886   12.2693 C.ar    1  UNL1        0.0030
      5 C          61.6984   89.8571   12.3503 C.ar    1  UNL1        0.0369
      6 C          60.8205   89.7537   11.1384 C.ar    1  UNL1        0.1391
      7 C          61.2498   90.3818    9.8456 C.ar    1  UNL1        0.0369
      8 C          62.5568   91.1133    9.7647 C.ar    1  UNL1        0.0031
      9 C          63.4347   91.2167   10.9765 C.ar    1  UNL1       -0.0001
     10 C          64.7417   91.9481   10.8957 C.ar    1  UNL1       -0.0024
     11 C          66.9267   92.7831   12.0266 C.3     1  UNL1        0.1240
     12 N          67.1195   93.8632   11.0038 N.ar    1  UNL1       -0.3045
     13 C          66.5899   95.2640   11.0903 C.ar    1  UNL1        0.0983
     14 C          67.0189   95.9988    9.8549 C.ar    1  UNL1        0.1193
     15 N          67.8136   95.0522    9.0050 N.ar    1  UNL1       -0.2223
     16 C          67.8757   93.7324    9.7151 C.ar    1  UNL1        0.1788
     17 C          69.1242   91.4928   12.5326 C.3     1  UNL1        0.0197
     18 C          68.0408   92.4344   12.9684 C.3     1  UNL1        0.0827
     19 N          68.0717   93.0272   14.3459 N.3     1  UNL1       -0.2696
     20 C          69.1726   92.6595   15.2962 C.3     1  UNL1        0.0897
     21 C          67.0018   93.9877   14.7732 C.3     1  UNL1        0.0897
     22 O          59.5135   89.0223   11.2193 O.3     1  UNL1       -0.4706
     23 C          59.4820   87.5273   11.0995 C.3     1  UNL1        0.2320
     24 C          60.1047   86.8569    9.9110 C.ar    1  UNL1        0.0212
     25 C          61.4901   86.2905   10.0099 C.ar    1  UNL1       -0.0000
     26 C          62.1129   85.6200    8.8213 C.ar    1  UNL1        0.0101
     27 C          61.3502   85.5159    7.5339 C.ar    1  UNL1        0.0684
     28 C          59.9648   86.0822    7.4350 C.ar    1  UNL1        0.0101
     29 C          59.3420   86.7527    8.6235 C.ar    1  UNL1       -0.0000
     30 C          61.9730   84.8454    6.3454 C.1     1  UNL1        0.1004
     31 N          62.5957   84.1749    5.1569 N.1     1  UNL1       -0.1908
@<TRIPOS>BOND
     1    17    18    1
     2    18    11    1
     3    11     1    1
     4     1     2   ar
     5     2     3   ar
     6     3     4   ar
     7     4     5   ar
     8     5     6   ar
     9     6    22    1
    10    22    23    1
    11    23    24    1
    12    24    25   ar
    13    25    26   ar
    14    26    27   ar
    15    27    30    1
    16    30    31    3
    17    27    28   ar
    18    28    29   ar
    19     6     7   ar
    20     7     8   ar
    21     8     9   ar
    22     9    10   ar
    23    11    12    1
    24    12    13   ar
    25    13    14   ar
    26    14    15   ar
    27    15    16   ar
    28    18    19    1
    29    19    20    1
    30    19    21    1
    31    10     1   ar
    32    16    12   ar
    33     9     4   ar
    34    29    24   ar
