@<TRIPOS>MOLECULE
*****
 60 63 0 0 0
SMALL
GASTEIGER

@<TRIPOS>ATOM
      1 C          66.7696   95.8314    5.9974 C.3     1  UNL1        0.0833
      2 C          67.2515   95.4699    7.3712 C.2     1  UNL1       -0.0272
      3 C          67.3547   94.8709    8.7425 C.2     1  UNL1       -0.0478
      4 C          68.6562   95.4894    9.1593 C.3     1  UNL1        0.0260
      5 C          67.0699   94.0876    9.9895 C.3     1  UNL1        0.0218
      6 C          66.4225   93.1894   11.0016 C.3     1  UNL1        0.0065
      7 C          67.4461   93.3067   12.0918 C.3     1  UNL1        0.0004
      8 C          65.4699   92.2563   11.6886 C.3     1  UNL1        0.0325
      9 C          64.2969   91.3712   11.9897 C.3     1  UNL1        0.1448
     10 C          63.0076   90.6127   11.8779 C.3     1  UNL1        0.1718
     11 O          61.7167   90.0483   11.3634 O.3     1  UNL1       -0.3261
     12 C          60.5388   89.7279   10.4917 C.3     1  UNL1        0.2456
     13 O          59.8085   88.8133   11.4298 O.3     1  UNL1       -0.3580
     14 C          59.5786   89.6803    9.3403 C.2     1  UNL1        0.2764
     15 O          58.5620   88.7514    9.9353 O.2     1  UNL1       -0.2814
     16 C          58.9213   89.9094    8.0116 C.2     1  UNL1        0.2892
     17 O          57.7088   89.0489    8.2105 O.2     1  UNL1       -0.2666
     18 N          58.6254   90.3950    6.6235 N.am    1  UNL1       -0.2654
     19 C          57.4524   89.5099    6.9245 C.3     1  UNL1        0.0943
     20 C          56.3713   89.3239    5.9016 C.3     1  UNL1        0.0216
     21 C          56.4631   90.0229    4.5776 C.3     1  UNL1        0.0040
     22 C          57.6361   90.9080    4.2766 C.3     1  UNL1        0.0314
     23 C          58.7173   91.0940    5.2995 C.3     1  UNL1        0.1749
     24 C          59.1887   91.9443    4.1572 C.2     1  UNL1        0.3354
     25 O          58.0559   91.6904    3.2072 O.2     1  UNL1       -0.2483
     26 O          59.9977   92.8703    3.2981 O.3     1  UNL1       -0.4468
     27 C          61.0725   93.7896    2.7984 C.3     1  UNL1        0.1892
     28 C          62.3175   94.6207    2.7027 C.3     1  UNL1        0.0715
     29 C          62.1175   95.1646    1.3191 C.3     1  UNL1        0.0066
     30 C          63.6222   95.2897    3.0194 C.3     1  UNL1        0.1216
     31 O          63.8111   96.0329    1.7303 O.3     1  UNL1       -0.3839
     32 C          64.8706   95.7371    3.7204 C.3     1  UNL1        0.0941
     33 C          65.9517   95.9232    4.7433 C.2     1  UNL1        0.1570
     34 O          66.8350   96.8553    3.9681 O.2     1  UNL1       -0.2956
     35 C          60.4662   89.0187   11.8618 C.3     1  UNL1        0.0616
     36 C          59.1955   88.2217   11.8538 C.3     1  UNL1        0.0056
     37 C          61.3578   88.9966   13.0679 C.3     1  UNL1        0.0375
     38 C          62.6285   89.7936   13.0760 C.3     1  UNL1        0.1450
     39 H          58.9919   88.5028   11.0084 H       1  UNL1        0.2132
     40 H          63.0647   95.8490    1.1386 H       1  UNL1        0.2104
     41 C          60.5013   94.0857    1.4434 C.2     1  UNL1       -0.0088
     42 C          59.7371   95.3557    1.2129 C.3     1  UNL1        0.0296
     43 C          60.6943   93.1119    0.3190 C.2     1  UNL1       -0.0314
     44 C          60.1232   93.4080   -1.0360 C.3     1  UNL1        0.0241
     45 C          58.7451   92.9325   -1.3893 C.3     1  UNL1        0.0070
     46 C          58.1740   93.2286   -2.7444 C.3     1  UNL1        0.0321
     47 C          58.9808   94.0003   -3.7461 C.3     1  UNL1        0.1375
     48 O          58.4096   94.2964   -5.1010 O.3     1  UNL1       -0.3820
     49 C          60.3588   94.4759   -3.3928 C.3     1  UNL1        0.1423
     50 C          60.9300   94.1798   -2.0378 C.3     1  UNL1        0.0364
     51 H          57.5174   93.9212   -5.1649 H       1  UNL1        0.2104
     52 O          61.1657   95.2476   -4.3944 O.3     1  UNL1       -0.3511
     53 C          61.9529   94.5202   -5.4439 C.3     1  UNL1        0.1741
     54 O          64.6869   90.9465   13.3744 O.3     1  UNL1       -0.3510
     55 C          65.6170   91.7985   14.1863 C.3     1  UNL1        0.1741
     56 O          63.5201   89.7716   14.2820 O.3     1  UNL1       -0.3510
     57 C          62.9497   89.4451   15.6304 C.3     1  UNL1        0.1741
     58 C          67.8967   96.7362    5.5960 C.3     1  UNL1        0.0377
     59 C          70.4776   96.6626    5.8850 C.2     1  UNL1       -0.0049
     60 C          69.1100   96.8560    6.4699 C.2     1  UNL1       -0.0254
@<TRIPOS>BOND
     1    59    60    2
     2    60    58    1
     3     1    58    1
     4     1     2    1
     5     2     3    2
     6     3     4    1
     7     3     5    1
     8     5     6    1
     9     6     7    1
    10     6     8    1
    11     8     9    1
    12     9    54    1
    13    54    55    1
    14     9    10    1
    15    10    11    1
    16    11    12    1
    17    12    13    1
    18    12    14    1
    19    14    15    2
    20    14    16    1
    21    16    17    2
    22    16    18   am
    23    18    19    1
    24    19    20    1
    25    20    21    1
    26    21    22    1
    27    23    22    1
    28    23    24    1
    29    24    25    2
    30    24    26    1
    31    26    27    1
    32    27    41    1
    33    41    42    1
    34    41    43    2
    35    44    43    1
    36    44    45    1
    37    45    46    1
    38    46    47    1
    39    47    48    1
    40    47    49    1
    41    49    52    1
    42    52    53    1
    43    49    50    1
    44    27    28    1
    45    28    29    1
    46    28    30    1
    47    30    31    1
    48    30    32    1
    49    32    33    1
    50    33    34    2
    51    12    35    1
    52    35    36    1
    53    35    37    1
    54    37    38    1
    55    38    56    1
    56    56    57    1
    57    33     1    1
    58    38    10    1
    59    23    18    1
    60    50    44    1
    61    13    39    1
    62    48    51    1
    63    31    40    1
