@<TRIPOS>MOLECULE
*****
 66 73 0 0 0
SMALL
GASTEIGER

@<TRIPOS>ATOM
      1 N          65.6601   89.9521   13.8996 N.3     1  UNL1       -0.1862
      2 C          66.0960   88.8040   14.7609 C.3     1  UNL1        0.1775
      3 C          65.3104   87.5262   14.7613 C.2     1  UNL1        0.2452
      4 O          65.7463   86.3780   15.6227 O.2     1  UNL1       -0.2732
      5 N          64.0890   87.3964   13.9004 N.am    1  UNL1       -0.2541
      6 C          63.3034   86.1185   13.9008 C.3     1  UNL1        0.1577
      7 C          62.0820   85.9887   13.0398 C.2     1  UNL1        0.2445
      8 O          61.2965   84.7109   13.0402 O.2     1  UNL1       -0.2731
      9 N          61.6461   87.1368   12.1785 N.am    1  UNL1       -0.2705
     10 C          62.4316   88.4147   12.1781 C.3     1  UNL1        0.1359
     11 C          63.6531   88.5444   13.0391 C.3     1  UNL1        0.1908
     12 N          64.4387   89.8223   13.0387 N.am    1  UNL1       -0.1863
     13 C          64.0028   90.9704   12.1773 C.2     1  UNL1        0.3191
     14 O          62.7813   90.8406   11.3164 O.2     1  UNL1       -0.2512
     15 N          64.7883   92.2482   12.1769 N.am    1  UNL1       -0.2836
     16 H          65.5900   92.3334   12.7420 H       1  UNL1        0.1513
     17 C          66.4456   91.2299   13.8992 C.3     1  UNL1        0.1188
     18 C          68.3654   92.0922   15.4227 C.2     1  UNL1       -0.0034
     19 C          66.9065   91.8274   15.1956 C.2     1  UNL1       -0.0071
     20 C          63.7393   84.9704   14.7621 C.3     1  UNL1        0.0556
     21 C          63.4361   83.5620   14.3443 C.ar    1  UNL1       -0.0198
     22 C          64.3016   82.8785   13.3277 C.ar    1  UNL1       -0.0011
     23 C          63.9985   81.4701   12.9099 C.ar    1  UNL1        0.0363
     24 C          62.8298   80.7452   13.5089 C.ar    1  UNL1        0.1337
     25 O          62.5267   79.3369   13.0911 O.3     1  UNL1       -0.5055
     26 C          61.9642   81.4288   14.5256 C.ar    1  UNL1        0.0363
     27 C          62.2674   82.8372   14.9433 C.ar    1  UNL1       -0.0011
     28 H          63.0673   78.9099   12.4560 H       1  UNL1        0.2922
     29 C          60.4247   87.0071   11.3175 C.3     1  UNL1        0.1217
     30 C          60.5441   87.1104    9.8258 C.ar    1  UNL1        0.0135
     31 C          61.0115   85.9298    9.0273 C.ar    1  UNL1       -0.0012
     32 C          61.1309   86.0330    7.5356 C.ar    1  UNL1       -0.0002
     33 C          60.7829   87.3169    6.8425 C.ar    1  UNL1        0.0016
     34 C          60.3154   88.4975    7.6410 C.ar    1  UNL1        0.0214
     35 C          59.9045   89.8827    7.2380 C.ar    1  UNL1        0.0722
     36 C          59.5311   90.6354    8.4805 C.ar    1  UNL1        0.0805
     37 N          59.7113   89.7156    9.6515 N.ar    1  UNL1       -0.3241
     38 C          59.4522   90.0570   11.0889 C.3     1  UNL1        0.1305
     39 C          60.1960   88.3943    9.1327 C.ar    1  UNL1        0.0577
     40 C          59.8725   90.4206    5.8380 C.2     1  UNL1        0.2510
     41 O          58.6679   90.1918    4.9739 O.2     1  UNL1       -0.2698
     42 N          61.0452   91.1873    5.3022 N.am    1  UNL1       -0.2791
     43 H          61.8358   91.3375    5.8694 H       1  UNL1        0.1552
     44 C          61.0133   91.7253    3.9024 C.ar    1  UNL1        0.0702
     45 C          62.1892   91.5215    2.9938 C.ar    1  UNL1        0.0211
     46 C          62.1575   92.0594    1.5939 C.ar    1  UNL1        0.0590
     47 C          60.9497   92.8011    1.1027 C.ar    1  UNL1        0.2249
     48 N          59.7738   93.0048    2.0113 N.ar    1  UNL1       -0.2088
     49 C          59.8056   92.4669    3.4112 C.ar    1  UNL1        0.1167
     50 O          60.9178   93.3390   -0.2971 O.3     1  UNL1       -0.4602
     51 C          60.0079   94.4808   -0.6413 C.3     1  UNL1        0.2085
     52 C          60.5409   95.6643   -1.3932 C.3     1  UNL1        0.0647
     53 C          61.6499   96.4873   -0.8078 C.3     1  UNL1        0.0759
     54 N          62.7882   95.8157   -0.0986 N.3     1  UNL1       -0.2726
     55 C          62.9260   95.9456    1.3895 C.3     1  UNL1        0.0721
     56 C          64.0643   95.2740    2.0988 C.3     1  UNL1        0.0174
     57 C          65.0649   94.4725    1.3202 C.3     1  UNL1        0.0029
     58 C          64.9272   94.3425   -0.1678 C.3     1  UNL1        0.0174
     59 C          63.7888   95.0141   -0.8772 C.3     1  UNL1        0.0721
     60 C          64.3524   93.3963   11.3156 C.3     1  UNL1        0.1177
     61 C          65.3736   94.2100   10.5773 C.ar    1  UNL1       -0.0025
     62 C          65.2470   95.7037   10.5247 C.ar    1  UNL1       -0.0026
     63 C          66.2682   96.5174    9.7864 C.ar    1  UNL1       -0.0003
     64 C          67.4160   95.8374    9.1007 C.ar    1  UNL1       -0.0000
     65 C          67.5426   94.3437    9.1533 C.ar    1  UNL1       -0.0003
     66 C          66.5214   93.5300    9.8916 C.ar    1  UNL1       -0.0026
@<TRIPOS>BOND
     1    18    19    2
     2    19    17    1
     3    17     1    1
     4     1     2    1
     5     2     3    1
     6     3     4    2
     7     3     5   am
     8     5     6    1
     9     6    20    1
    10    20    21    1
    11    21    22   ar
    12    22    23   ar
    13    23    24   ar
    14    24    25    1
    15    24    26   ar
    16    26    27   ar
    17     6     7    1
    18     7     8    2
    19     7     9   am
    20     9    29    1
    21    29    30    1
    22    30    31   ar
    23    31    32   ar
    24    32    33   ar
    25    33    34   ar
    26    34    35   ar
    27    35    40    1
    28    40    41    2
    29    40    42   am
    30    42    44    1
    31    44    45   ar
    32    45    46   ar
    33    46    47   ar
    34    47    50    1
    35    50    51    1
    36    51    52    1
    37    52    53    1
    38    53    54    1
    39    54    55    1
    40    55    56    1
    41    56    57    1
    42    57    58    1
    43    58    59    1
    44    47    48   ar
    45    48    49   ar
    46    35    36   ar
    47    36    37   ar
    48    37    38    1
    49    37    39   ar
    50     9    10    1
    51    11    10    1
    52    11    12    1
    53    12    13   am
    54    13    14    2
    55    13    15   am
    56    15    60    1
    57    60    61    1
    58    61    62   ar
    59    62    63   ar
    60    63    64   ar
    61    64    65   ar
    62    65    66   ar
    63    12     1    1
    64    66    61   ar
    65    11     5    1
    66    27    21   ar
    67    39    30   ar
    68    39    34   ar
    69    49    44   ar
    70    59    54    1
    71    25    28    1
    72    42    43    1
    73    15    16    1
@<TRIPOS>MOLECULE
*****
 66 73 0 0 0
SMALL
GASTEIGER

@<TRIPOS>ATOM
      1 N          65.7745   89.7634   14.0611 N.3     1  UNL1       -0.1862
      2 C          66.1984   88.5614   14.8518 C.3     1  UNL1        0.1775
      3 C          65.3872   87.3010   14.7935 C.2     1  UNL1        0.2452
      4 O          65.8112   86.0989   15.5843 O.2     1  UNL1       -0.2732
      5 N          64.1521   87.2426   13.9444 N.am    1  UNL1       -0.2541
      6 C          63.3409   85.9822   13.8861 C.3     1  UNL1        0.1577
      7 C          62.1058   85.9239   13.0370 C.2     1  UNL1        0.2445
      8 O          61.2946   84.6635   12.9786 O.2     1  UNL1       -0.2731
      9 N          61.6818   87.1259   12.2461 N.am    1  UNL1       -0.2705
     10 C          62.4930   88.3863   12.3045 C.3     1  UNL1        0.1359
     11 C          63.7282   88.4446   13.1536 C.3     1  UNL1        0.1908
     12 N          64.5394   89.7050   13.2120 N.am    1  UNL1       -0.1863
     13 C          64.1154   90.9071   12.4211 C.2     1  UNL1        0.3191
     14 O          62.8802   90.8487   11.5720 O.2     1  UNL1       -0.2512
     15 N          64.9265   92.1675   12.4795 N.am    1  UNL1       -0.2836
     16 H          65.7372   92.2058   13.0368 H       1  UNL1        0.1513
     17 C          66.5857   91.0238   14.1194 C.3     1  UNL1        0.1188
     18 C          67.2686   93.2035   15.3572 C.2     1  UNL1       -0.0034
     19 C          66.4992   91.9163   15.3218 C.2     1  UNL1       -0.0071
     20 C          63.7649   84.7802   14.6769 C.3     1  UNL1        0.0556
     21 C          63.4511   83.4025   14.1735 C.ar    1  UNL1       -0.0198
     22 C          62.3350   82.6141   14.7920 C.ar    1  UNL1       -0.0011
     23 C          62.0212   81.2364   14.2886 C.ar    1  UNL1        0.0363
     24 C          62.8236   80.6470   13.1667 C.ar    1  UNL1        0.1337
     25 O          62.5098   79.2693   12.6633 O.3     1  UNL1       -0.5055
     26 C          63.9398   81.4354   12.5481 C.ar    1  UNL1        0.0363
     27 C          64.2536   82.8131   13.0515 C.ar    1  UNL1       -0.0011
     28 H          61.8126   78.7768   13.0497 H       1  UNL1        0.2922
     29 C          60.4467   87.0676   11.3970 C.3     1  UNL1        0.1217
     30 C          60.5589   87.1472    9.9033 C.ar    1  UNL1        0.0135
     31 C          61.0218   85.9538    9.1213 C.ar    1  UNL1       -0.0012
     32 C          61.1340   86.0333    7.6277 C.ar    1  UNL1       -0.0002
     33 C          60.7835   87.3063    6.9160 C.ar    1  UNL1        0.0016
     34 C          60.3207   88.4998    7.6980 C.ar    1  UNL1        0.0214
     35 C          59.9087   89.8787    7.2751 C.ar    1  UNL1        0.0722
     36 C          59.5419   90.6513    8.5073 C.ar    1  UNL1        0.0805
     37 N          59.7271   89.7499    9.6918 N.ar    1  UNL1       -0.3241
     38 C          59.4752   90.1143   11.1249 C.3     1  UNL1        0.1305
     39 C          60.2084   88.4202    9.1917 C.ar    1  UNL1        0.0577
     40 C          59.8704   90.3944    5.8670 C.2     1  UNL1        0.2510
     41 O          58.6931   90.0903    4.9886 O.2     1  UNL1       -0.2698
     42 N          61.0094   91.2143    5.3372 N.am    1  UNL1       -0.2791
     43 H          61.7821   91.4139    5.9137 H       1  UNL1        0.1552
     44 C          60.9711   91.7300    3.9293 C.ar    1  UNL1        0.0702
     45 C          62.1646   91.5619    3.0363 C.ar    1  UNL1        0.0211
     46 C          62.1264   92.0776    1.6283 C.ar    1  UNL1        0.0590
     47 C          60.8947   92.7615    1.1132 C.ar    1  UNL1        0.2249
     48 N          59.7012   92.9296    2.0062 N.ar    1  UNL1       -0.2088
     49 C          59.7394   92.4139    3.4142 C.ar    1  UNL1        0.1167
     50 O          60.8564   93.2772   -0.2948 O.3     1  UNL1       -0.4602
     51 C          60.2238   94.6048   -0.5903 C.3     1  UNL1        0.2085
     52 C          58.7362   94.7072   -0.7532 C.3     1  UNL1        0.0647
     53 C          57.9075   93.4626   -0.8737 C.3     1  UNL1        0.0759
     54 N          57.5417   92.9336   -2.2288 N.3     1  UNL1       -0.2726
     55 C          56.4779   91.8845   -2.3623 C.3     1  UNL1        0.0721
     56 C          56.1121   91.3554   -3.7173 C.3     1  UNL1        0.0174
     57 C          56.8099   91.8754   -4.9390 C.3     1  UNL1        0.0029
     58 C          57.8737   92.9246   -4.8056 C.3     1  UNL1        0.0174
     59 C          58.2396   93.4537   -3.4505 C.3     1  UNL1        0.0721
     60 C          64.5026   93.3695   11.6887 C.3     1  UNL1        0.1177
     61 C          65.4722   94.0347   10.7573 C.ar    1  UNL1       -0.0025
     62 C          65.3105   95.4868   10.4182 C.ar    1  UNL1       -0.0026
     63 C          66.2801   96.1520    9.4868 C.ar    1  UNL1       -0.0003
     64 C          67.4113   95.3650    8.8945 C.ar    1  UNL1       -0.0000
     65 C          67.5730   93.9127    9.2336 C.ar    1  UNL1       -0.0003
     66 C          66.6035   93.2476   10.1650 C.ar    1  UNL1       -0.0026
@<TRIPOS>BOND
     1    18    19    2
     2    19    17    1
     3    17     1    1
     4     1     2    1
     5     2     3    1
     6     3     4    2
     7     3     5   am
     8     5     6    1
     9     6    20    1
    10    20    21    1
    11    21    22   ar
    12    22    23   ar
    13    23    24   ar
    14    24    25    1
    15    24    26   ar
    16    26    27   ar
    17     6     7    1
    18     7     8    2
    19     7     9   am
    20     9    29    1
    21    29    30    1
    22    30    31   ar
    23    31    32   ar
    24    32    33   ar
    25    33    34   ar
    26    34    35   ar
    27    35    40    1
    28    40    41    2
    29    40    42   am
    30    42    44    1
    31    44    45   ar
    32    45    46   ar
    33    46    47   ar
    34    47    50    1
    35    50    51    1
    36    51    52    1
    37    52    53    1
    38    53    54    1
    39    54    55    1
    40    55    56    1
    41    56    57    1
    42    57    58    1
    43    58    59    1
    44    47    48   ar
    45    48    49   ar
    46    35    36   ar
    47    36    37   ar
    48    37    38    1
    49    37    39   ar
    50     9    10    1
    51    11    10    1
    52    11    12    1
    53    12    13   am
    54    13    14    2
    55    13    15   am
    56    15    60    1
    57    60    61    1
    58    61    62   ar
    59    62    63   ar
    60    63    64   ar
    61    64    65   ar
    62    65    66   ar
    63    12     1    1
    64    66    61   ar
    65    11     5    1
    66    27    21   ar
    67    39    30   ar
    68    39    34   ar
    69    49    44   ar
    70    59    54    1
    71    25    28    1
    72    42    43    1
    73    15    16    1
@<TRIPOS>MOLECULE
*****
 66 73 0 0 0
SMALL
GASTEIGER

@<TRIPOS>ATOM
      1 N          65.6958   89.8972   13.9547 N.3     1  UNL1       -0.1862
      2 C          66.1227   88.7349   14.8014 C.3     1  UNL1        0.1775
      3 C          65.3232   87.4658   14.7911 C.2     1  UNL1        0.2452
      4 O          65.7501   86.3035   15.6378 O.2     1  UNL1       -0.2732
      5 N          64.0967   87.3590   13.9342 N.am    1  UNL1       -0.2541
      6 C          63.2972   86.0899   13.9239 C.3     1  UNL1        0.1577
      7 C          62.0707   85.9830   13.0670 C.2     1  UNL1        0.2445
      8 O          61.2712   84.7139   13.0567 O.2     1  UNL1       -0.2731
      9 N          61.6438   87.1453   12.2203 N.am    1  UNL1       -0.2705
     10 C          62.4433   88.4144   12.2305 C.3     1  UNL1        0.1359
     11 C          63.6698   88.5212   13.0875 C.3     1  UNL1        0.1908
     12 N          64.4694   89.7903   13.0978 N.am    1  UNL1       -0.1863
     13 C          64.0424   90.9526   12.2511 C.2     1  UNL1        0.3191
     14 O          62.8159   90.8458   11.3941 O.2     1  UNL1       -0.2512
     15 N          64.8419   92.2217   12.2613 N.am    1  UNL1       -0.2836
     16 H          65.6469   92.2918   12.8238 H       1  UNL1        0.1513
     17 C          66.4953   91.1663   13.9650 C.3     1  UNL1        0.1188
     18 C          67.0176   92.8267   15.8937 C.2     1  UNL1       -0.0034
     19 C          67.2961   91.5385   15.1775 C.2     1  UNL1       -0.0071
     20 C          63.7241   84.9276   14.7706 C.3     1  UNL1        0.0556
     21 C          63.4276   83.5263   14.3251 C.ar    1  UNL1       -0.0198
     22 C          64.2801   82.8767   13.2758 C.ar    1  UNL1       -0.0011
     23 C          63.9836   81.4754   12.8303 C.ar    1  UNL1        0.0363
     24 C          62.8347   80.7237   13.4343 C.ar    1  UNL1        0.1337
     25 O          62.5382   79.3223   12.9888 O.3     1  UNL1       -0.5055
     26 C          61.9821   81.3733   14.4837 C.ar    1  UNL1        0.0363
     27 C          62.2786   82.7746   14.9291 C.ar    1  UNL1       -0.0011
     28 H          63.0708   78.9165   12.3333 H       1  UNL1        0.2922
     29 C          60.4173   87.0385   11.3633 C.3     1  UNL1        0.1217
     30 C          60.5357   87.1232    9.8704 C.ar    1  UNL1        0.0135
     31 C          60.9856   85.9273    9.0846 C.ar    1  UNL1       -0.0012
     32 C          61.1041   86.0120    7.5918 C.ar    1  UNL1       -0.0002
     33 C          60.7727   87.2927    6.8846 C.ar    1  UNL1        0.0016
     34 C          60.3228   88.4886    7.6704 C.ar    1  UNL1        0.0214
     35 C          59.9303   89.8746    7.2522 C.ar    1  UNL1        0.0722
     36 C          59.5694   90.6465    8.4866 C.ar    1  UNL1        0.0805
     37 N          59.7387   89.7375    9.6677 N.ar    1  UNL1       -0.3241
     38 C          59.4866   90.0988   11.1015 C.3     1  UNL1        0.1305
     39 C          60.2043   88.4039    9.1632 C.ar    1  UNL1        0.0577
     40 C          59.9036   90.3971    5.8463 C.2     1  UNL1        0.2510
     41 O          58.7375   90.0901    4.9542 O.2     1  UNL1       -0.2698
     42 N          61.0430   91.2265    5.3326 N.am    1  UNL1       -0.2791
     43 H          61.8083   91.4279    5.9181 H       1  UNL1        0.1552
     44 C          61.0163   91.7489    3.9268 C.ar    1  UNL1        0.0702
     45 C          62.1905   91.5241    3.0208 C.ar    1  UNL1        0.0211
     46 C          62.1639   92.0465    1.6150 C.ar    1  UNL1        0.0590
     47 C          60.9631   92.7937    1.1151 C.ar    1  UNL1        0.2249
     48 N          59.7890   93.0185    2.0211 N.ar    1  UNL1       -0.2088
     49 C          59.8156   92.4961    3.4270 C.ar    1  UNL1        0.1167
     50 O          60.9365   93.3162   -0.2906 O.3     1  UNL1       -0.4602
     51 C          62.1615   93.9525   -0.8777 C.3     1  UNL1        0.2085
     52 C          62.4593   93.7985   -2.3397 C.3     1  UNL1        0.0647
     53 C          63.8580   93.9945   -2.8449 C.3     1  UNL1        0.0759
     54 N          64.1836   93.7086   -4.2809 N.3     1  UNL1       -0.2726
     55 C          64.8012   92.3961   -4.6630 C.3     1  UNL1        0.0721
     56 C          65.1269   92.1102   -6.0990 C.3     1  UNL1        0.0174
     57 C          64.8349   93.1367   -7.1531 C.3     1  UNL1        0.0029
     58 C          64.2173   94.4492   -6.7710 C.3     1  UNL1        0.0174
     59 C          63.8916   94.7352   -5.3349 C.3     1  UNL1        0.0721
     60 C          64.4150   93.3840   11.4147 C.3     1  UNL1        0.1177
     61 C          65.4315   94.1406   10.6120 C.ar    1  UNL1       -0.0025
     62 C          66.5716   93.4105    9.9661 C.ar    1  UNL1       -0.0026
     63 C          67.5881   94.1671    9.1634 C.ar    1  UNL1       -0.0003
     64 C          67.4645   95.6538    9.0066 C.ar    1  UNL1       -0.0000
     65 C          66.3244   96.3839    9.6526 C.ar    1  UNL1       -0.0003
     66 C          65.3079   95.6273   10.4552 C.ar    1  UNL1       -0.0026
@<TRIPOS>BOND
     1    18    19    2
     2    19    17    1
     3    17     1    1
     4     1     2    1
     5     2     3    1
     6     3     4    2
     7     3     5   am
     8     5     6    1
     9     6    20    1
    10    20    21    1
    11    21    22   ar
    12    22    23   ar
    13    23    24   ar
    14    24    25    1
    15    24    26   ar
    16    26    27   ar
    17     6     7    1
    18     7     8    2
    19     7     9   am
    20     9    29    1
    21    29    30    1
    22    30    31   ar
    23    31    32   ar
    24    32    33   ar
    25    33    34   ar
    26    34    35   ar
    27    35    40    1
    28    40    41    2
    29    40    42   am
    30    42    44    1
    31    44    45   ar
    32    45    46   ar
    33    46    47   ar
    34    47    50    1
    35    50    51    1
    36    51    52    1
    37    52    53    1
    38    53    54    1
    39    54    55    1
    40    55    56    1
    41    56    57    1
    42    57    58    1
    43    58    59    1
    44    47    48   ar
    45    48    49   ar
    46    35    36   ar
    47    36    37   ar
    48    37    38    1
    49    37    39   ar
    50     9    10    1
    51    11    10    1
    52    11    12    1
    53    12    13   am
    54    13    14    2
    55    13    15   am
    56    15    60    1
    57    60    61    1
    58    61    62   ar
    59    62    63   ar
    60    63    64   ar
    61    64    65   ar
    62    65    66   ar
    63    12     1    1
    64    66    61   ar
    65    11     5    1
    66    27    21   ar
    67    39    30   ar
    68    39    34   ar
    69    49    44   ar
    70    59    54    1
    71    25    28    1
    72    42    43    1
    73    15    16    1
@<TRIPOS>MOLECULE
*****
 66 73 0 0 0
SMALL
GASTEIGER

@<TRIPOS>ATOM
      1 N          64.5574   83.1383   13.2537 N.3     1  UNL1       -0.1862
      2 C          65.1804   84.0131   14.3008 C.3     1  UNL1        0.1775
      3 C          64.7622   85.4483   14.4249 C.2     1  UNL1        0.2452
      4 O          65.3853   86.3231   15.4721 O.2     1  UNL1       -0.2732
      5 N          63.7212   86.0086   13.5018 N.am    1  UNL1       -0.2541
      6 C          63.3031   87.4438   13.6258 C.3     1  UNL1        0.1577
      7 C          62.2620   88.0042   12.7028 C.2     1  UNL1        0.2445
      8 O          61.8439   89.4394   12.8268 O.2     1  UNL1       -0.2731
      9 N          61.6390   87.1294   11.6556 N.am    1  UNL1       -0.2705
     10 C          62.0571   85.6942   11.5315 C.3     1  UNL1        0.1359
     11 C          63.0982   85.1338   12.4547 C.3     1  UNL1        0.1908
     12 N          63.5163   83.6986   12.3306 N.am    1  UNL1       -0.1863
     13 C          62.8933   82.8238   11.2834 C.2     1  UNL1        0.3191
     14 O          61.8522   83.3841   10.3603 O.2     1  UNL1       -0.2512
     15 N          63.3114   81.3886   11.1593 N.am    1  UNL1       -0.2836
     16 H          63.9947   81.0208   11.7652 H       1  UNL1        0.1513
     17 C          64.9755   81.7031   13.1296 C.3     1  UNL1        0.1188
     18 C          62.7994   80.8350   14.2526 C.2     1  UNL1       -0.0034
     19 C          64.2423   80.6397   13.8922 C.2     1  UNL1       -0.0071
     20 C          63.9260   88.3187   14.6730 C.3     1  UNL1        0.0556
     21 C          64.4998   89.6514   14.2926 C.ar    1  UNL1       -0.0198
     22 C          64.3411   90.1641   12.8919 C.ar    1  UNL1       -0.0011
     23 C          64.9148   91.4968   12.5115 C.ar    1  UNL1        0.0363
     24 C          65.6473   92.3168   13.5318 C.ar    1  UNL1        0.1337
     25 O          66.2210   93.6495   13.1514 O.3     1  UNL1       -0.5055
     26 C          65.8060   91.8041   14.9325 C.ar    1  UNL1        0.0363
     27 C          65.2323   90.4714   15.3129 C.ar    1  UNL1       -0.0011
     28 H          66.1219   93.9697   12.2764 H       1  UNL1        0.2922
     29 C          60.5979   87.6897   10.7325 C.3     1  UNL1        0.1217
     30 C          60.9398   88.8307    9.8206 C.ar    1  UNL1        0.0135
     31 C          61.9808   89.8307   10.2285 C.ar    1  UNL1       -0.0012
     32 C          62.3227   90.9716    9.3168 C.ar    1  UNL1       -0.0002
     33 C          61.6238   91.1124    7.9971 C.ar    1  UNL1        0.0016
     34 C          60.5829   90.1124    7.5892 C.ar    1  UNL1        0.0214
     35 C          59.7332   89.9931    6.3588 C.ar    1  UNL1        0.0722
     36 C          58.8661   88.7786    6.5102 C.ar    1  UNL1        0.0805
     37 N          59.1799   88.1472    7.8341 N.ar    1  UNL1       -0.3241
     38 C          58.5443   86.9088    8.3930 C.3     1  UNL1        0.1305
     39 C          60.2409   88.9715    8.5010 C.ar    1  UNL1        0.0577
     40 C          59.7481   90.9250    5.1834 C.2     1  UNL1        0.2510
     41 O          58.4716   91.5535    4.7084 O.2     1  UNL1       -0.2698
     42 N          61.0394   91.2283    4.4830 N.am    1  UNL1       -0.2791
     43 H          61.8771   90.8157    4.7947 H       1  UNL1        0.1552
     44 C          61.0543   92.1600    3.3076 C.ar    1  UNL1        0.0702
     45 C          62.3210   92.3682    2.5317 C.ar    1  UNL1        0.0211
     46 C          62.3360   93.3000    1.3563 C.ar    1  UNL1        0.0590
     47 C          61.0843   94.0235    0.9568 C.ar    1  UNL1        0.2249
     48 N          59.8175   93.8153    1.7327 N.ar    1  UNL1       -0.2088
     49 C          59.8025   92.8835    2.9081 C.ar    1  UNL1        0.1167
     50 O          61.0992   94.9553   -0.2186 O.3     1  UNL1       -0.4602
     51 C          61.8160   94.5640   -1.4768 C.3     1  UNL1        0.2085
     52 C          61.1277   93.7056   -2.4963 C.3     1  UNL1        0.0647
     53 C          59.8165   94.1406   -3.0808 C.3     1  UNL1        0.0759
     54 N          58.5816   93.3229   -2.8437 N.3     1  UNL1       -0.2726
     55 C          57.9327   92.5963   -3.9843 C.3     1  UNL1        0.0721
     56 C          56.6977   91.7786   -3.7472 C.3     1  UNL1        0.0174
     57 C          56.1116   91.6875   -2.3695 C.3     1  UNL1        0.0029
     58 C          56.7604   92.4141   -1.2288 C.3     1  UNL1        0.0174
     59 C          57.9955   93.2318   -1.4659 C.3     1  UNL1        0.0721
     60 C          62.6884   80.5137   10.1122 C.3     1  UNL1        0.1177
     61 C          63.0965   79.0749    9.9972 C.ar    1  UNL1       -0.0025
     62 C          62.5385   78.0587   10.9490 C.ar    1  UNL1       -0.0026
     63 C          62.9466   76.6198   10.8339 C.ar    1  UNL1       -0.0003
     64 C          63.9126   76.1972    9.7671 C.ar    1  UNL1       -0.0000
     65 C          64.4706   77.2134    8.8153 C.ar    1  UNL1       -0.0003
     66 C          64.0626   78.6523    8.9303 C.ar    1  UNL1       -0.0026
@<TRIPOS>BOND
     1    18    19    2
     2    19    17    1
     3    17     1    1
     4     1     2    1
     5     2     3    1
     6     3     4    2
     7     3     5   am
     8     5     6    1
     9     6    20    1
    10    20    21    1
    11    21    22   ar
    12    22    23   ar
    13    23    24   ar
    14    24    25    1
    15    24    26   ar
    16    26    27   ar
    17     6     7    1
    18     7     8    2
    19     7     9   am
    20     9    29    1
    21    29    30    1
    22    30    31   ar
    23    31    32   ar
    24    32    33   ar
    25    33    34   ar
    26    34    35   ar
    27    35    40    1
    28    40    41    2
    29    40    42   am
    30    42    44    1
    31    44    45   ar
    32    45    46   ar
    33    46    47   ar
    34    47    50    1
    35    50    51    1
    36    51    52    1
    37    52    53    1
    38    53    54    1
    39    54    55    1
    40    55    56    1
    41    56    57    1
    42    57    58    1
    43    58    59    1
    44    47    48   ar
    45    48    49   ar
    46    35    36   ar
    47    36    37   ar
    48    37    38    1
    49    37    39   ar
    50     9    10    1
    51    11    10    1
    52    11    12    1
    53    12    13   am
    54    13    14    2
    55    13    15   am
    56    15    60    1
    57    60    61    1
    58    61    62   ar
    59    62    63   ar
    60    63    64   ar
    61    64    65   ar
    62    65    66   ar
    63    12     1    1
    64    66    61   ar
    65    11     5    1
    66    27    21   ar
    67    39    30   ar
    68    39    34   ar
    69    49    44   ar
    70    59    54    1
    71    25    28    1
    72    42    43    1
    73    15    16    1
@<TRIPOS>MOLECULE
*****
 66 73 0 0 0
SMALL
GASTEIGER

@<TRIPOS>ATOM
      1 N          64.5422   83.1880   13.2237 N.3     1  UNL1       -0.1862
      2 C          65.1579   84.0682   14.2706 C.3     1  UNL1        0.1775
      3 C          64.7357   85.5028   14.3873 C.2     1  UNL1        0.2452
      4 O          65.3514   86.3831   15.4343 O.2     1  UNL1       -0.2732
      5 N          63.6978   86.0572   13.4571 N.am    1  UNL1       -0.2541
      6 C          63.2755   87.4918   13.5738 C.3     1  UNL1        0.1577
      7 C          62.2376   88.0462   12.6436 C.2     1  UNL1        0.2445
      8 O          61.8154   89.4808   12.7603 O.2     1  UNL1       -0.2731
      9 N          61.6219   87.1660   11.5966 N.am    1  UNL1       -0.2705
     10 C          62.0441   85.7313   11.4799 C.3     1  UNL1        0.1359
     11 C          63.0821   85.1770   12.4102 C.3     1  UNL1        0.1908
     12 N          63.5043   83.7424   12.2934 N.am    1  UNL1       -0.1863
     13 C          62.8885   82.8621   11.2465 C.2     1  UNL1        0.3191
     14 O          61.8506   83.4165   10.3163 O.2     1  UNL1       -0.2512
     15 N          63.3108   81.4275   11.1298 N.am    1  UNL1       -0.2836
     16 H          63.9920   81.0637   11.7403 H       1  UNL1        0.1513
     17 C          64.9644   81.7534   13.1070 C.3     1  UNL1        0.1188
     18 C          62.8049   80.7250   14.1213 C.2     1  UNL1       -0.0034
     19 C          64.2941   80.7039   13.9432 C.2     1  UNL1       -0.0071
     20 C          63.8912   88.3720   14.6207 C.3     1  UNL1        0.0556
     21 C          64.5841   89.6410   14.2209 C.ar    1  UNL1       -0.0198
     22 C          65.8056   90.0947   14.9639 C.ar    1  UNL1       -0.0011
     23 C          66.4984   91.3636   14.5641 C.ar    1  UNL1        0.0363
     24 C          65.9697   92.1788   13.4214 C.ar    1  UNL1        0.1337
     25 O          66.6625   93.4478   13.0216 O.3     1  UNL1       -0.5055
     26 C          64.7481   91.7251   12.6784 C.ar    1  UNL1        0.0363
     27 C          64.0553   90.4562   13.0781 C.ar    1  UNL1       -0.0011
     28 H          67.4256   93.7312   13.4858 H       1  UNL1        0.2922
     29 C          60.5840   87.7203   10.6664 C.3     1  UNL1        0.1217
     30 C          60.9280   88.8578    9.7509 C.ar    1  UNL1        0.0135
     31 C          61.9730   89.8554   10.1544 C.ar    1  UNL1       -0.0012
     32 C          62.3170   90.9929    9.2390 C.ar    1  UNL1       -0.0002
     33 C          61.6161   91.1326    7.9203 C.ar    1  UNL1        0.0016
     34 C          60.5711   90.1350    7.5169 C.ar    1  UNL1        0.0214
     35 C          59.7188   90.0154    6.2884 C.ar    1  UNL1        0.0722
     36 C          58.8480   88.8041    6.4445 C.ar    1  UNL1        0.0805
     37 N          59.1621   88.1751    7.7694 N.ar    1  UNL1       -0.3241
     38 C          58.5234   86.9403    8.3327 C.3     1  UNL1        0.1305
     39 C          60.2271   88.9976    8.4322 C.ar    1  UNL1        0.0577
     40 C          59.7345   90.9442    5.1105 C.2     1  UNL1        0.2510
     41 O          58.4515   91.5305    4.6005 O.2     1  UNL1       -0.2698
     42 N          61.0333   91.2865    4.4427 N.am    1  UNL1       -0.2791
     43 H          61.8754   90.9017    4.7774 H       1  UNL1        0.1552
     44 C          61.0491   92.2152    3.2649 C.ar    1  UNL1        0.0702
     45 C          62.1664   92.1416    2.2667 C.ar    1  UNL1        0.0211
     46 C          62.1823   93.0702    1.0889 C.ar    1  UNL1        0.0590
     47 C          61.0809   94.0725    0.9092 C.ar    1  UNL1        0.2249
     48 N          59.9636   94.1462    1.9073 N.ar    1  UNL1       -0.2088
     49 C          59.9477   93.2175    3.0852 C.ar    1  UNL1        0.1167
     50 O          61.0967   95.0012   -0.2686 O.3     1  UNL1       -0.4602
     51 C          62.0684   96.1433   -0.3102 C.3     1  UNL1        0.2085
     52 C          63.5129   95.8880   -0.6235 C.3     1  UNL1        0.0647
     53 C          64.0391   96.1516   -2.0032 C.3     1  UNL1        0.0759
     54 N          64.2004   95.0191   -2.9734 N.3     1  UNL1       -0.2726
     55 C          64.8128   95.2666   -4.3202 C.3     1  UNL1        0.0721
     56 C          64.9741   94.1341   -5.2904 C.3     1  UNL1        0.0174
     57 C          64.5231   92.7539   -4.9139 C.3     1  UNL1        0.0029
     58 C          63.9107   92.5063   -3.5671 C.3     1  UNL1        0.0174
     59 C          63.7494   93.6389   -2.5968 C.3     1  UNL1        0.0721
     60 C          62.6951   80.5473   10.0828 C.3     1  UNL1        0.1177
     61 C          63.0819   79.1006    9.9971 C.ar    1  UNL1       -0.0025
     62 C          64.0494   78.6439    8.9458 C.ar    1  UNL1       -0.0026
     63 C          64.4362   77.1972    8.8601 C.ar    1  UNL1       -0.0003
     64 C          63.8556   76.2071    9.8257 C.ar    1  UNL1       -0.0000
     65 C          62.8880   76.6637   10.8772 C.ar    1  UNL1       -0.0003
     66 C          62.5012   78.1105   10.9629 C.ar    1  UNL1       -0.0026
@<TRIPOS>BOND
     1    18    19    2
     2    19    17    1
     3    17     1    1
     4     1     2    1
     5     2     3    1
     6     3     4    2
     7     3     5   am
     8     5     6    1
     9     6    20    1
    10    20    21    1
    11    21    22   ar
    12    22    23   ar
    13    23    24   ar
    14    24    25    1
    15    24    26   ar
    16    26    27   ar
    17     6     7    1
    18     7     8    2
    19     7     9   am
    20     9    29    1
    21    29    30    1
    22    30    31   ar
    23    31    32   ar
    24    32    33   ar
    25    33    34   ar
    26    34    35   ar
    27    35    40    1
    28    40    41    2
    29    40    42   am
    30    42    44    1
    31    44    45   ar
    32    45    46   ar
    33    46    47   ar
    34    47    50    1
    35    50    51    1
    36    51    52    1
    37    52    53    1
    38    53    54    1
    39    54    55    1
    40    55    56    1
    41    56    57    1
    42    57    58    1
    43    58    59    1
    44    47    48   ar
    45    48    49   ar
    46    35    36   ar
    47    36    37   ar
    48    37    38    1
    49    37    39   ar
    50     9    10    1
    51    11    10    1
    52    11    12    1
    53    12    13   am
    54    13    14    2
    55    13    15   am
    56    15    60    1
    57    60    61    1
    58    61    62   ar
    59    62    63   ar
    60    63    64   ar
    61    64    65   ar
    62    65    66   ar
    63    12     1    1
    64    66    61   ar
    65    11     5    1
    66    27    21   ar
    67    39    30   ar
    68    39    34   ar
    69    49    44   ar
    70    59    54    1
    71    25    28    1
    72    42    43    1
    73    15    16    1
