@<TRIPOS>MOLECULE
*****
 30 32 0 0 0
SMALL
GASTEIGER

@<TRIPOS>ATOM
      1 C          63.3844   87.8301   12.6996 C.ar    1  UNL1        0.1682
      2 C          62.5571   87.1021   11.6818 C.ar    1  UNL1        0.0945
      3 CL         61.9292   87.8562   10.5474 Cl      1  UNL1       -0.0790
      4 C          62.3578   85.6200   11.7986 C.ar    1  UNL1        0.0338
      5 C          62.9858   84.8659   12.9331 C.ar    1  UNL1        0.0893
      6 C          63.8130   85.5939   13.9507 C.ar    1  UNL1        0.0338
      7 C          64.0123   87.0760   13.8340 C.ar    1  UNL1        0.0945
      8 CL         64.8397   87.8039   14.8517 Cl      1  UNL1       -0.0790
      9 N          62.7865   83.3838   13.0498 N.ar    1  UNL1       -0.1793
     10 N          62.9113   82.5123   11.8353 N.ar    1  UNL1       -0.1460
     11 C          62.7120   81.0301   11.9521 C.ar    1  UNL1        0.2247
     12 C          62.3879   80.4196   13.2833 C.ar    1  UNL1        0.2904
     13 O          62.1886   78.9374   13.4001 O.2     1  UNL1       -0.2646
     14 N          62.2631   81.2911   14.4978 N.ar    1  UNL1       -0.2711
     15 C          62.4624   82.7732   14.3810 C.ar    1  UNL1        0.3503
     16 O          62.3376   83.6447   15.5955 O.2     1  UNL1       -0.2446
     17 H          62.0503   80.8903   15.3715 H       1  UNL1        0.1736
     18 C          62.8368   80.1586   10.7377 C.1     1  UNL1        0.1265
     19 N          62.9616   79.2871    9.5232 N.1     1  UNL1       -0.1890
     20 O          63.5837   89.3122   12.5828 O.3     1  UNL1       -0.4335
     21 C          65.4080   91.8004   15.0790 C.3     1  UNL1        0.1066
     22 C          65.1108   90.9849   13.8556 C.2     1  UNL1        0.0422
     23 C          63.8809   90.1277   13.8063 C.2     1  UNL1        0.2424
     24 N          62.9482   90.0859   14.9802 N.2     1  UNL1       -0.1186
     25 N          63.2454   90.9013   16.2036 N.am    1  UNL1       -0.0761
     26 C          64.4753   91.7586   16.2530 C.2     1  UNL1        0.2665
     27 O          64.7725   92.5740   17.4764 O.2     1  UNL1       -0.2711
     28 C          67.7617   92.3041   16.0569 C.3     1  UNL1        0.0008
     29 C          66.6380   92.6576   15.1284 C.3     1  UNL1        0.0130
     30 C          66.7441   93.8683   14.2493 C.3     1  UNL1        0.0008
@<TRIPOS>BOND
     1    28    29    1
     2    29    30    1
     3    29    21    1
     4    21    22    1
     5    22    23    2
     6    23    20    1
     7    20     1    1
     8     1     2   ar
     9     2     3    1
    10     2     4   ar
    11     4     5   ar
    12     5     9    1
    13     9    10   ar
    14    10    11   ar
    15    11    18    1
    16    18    19    3
    17    11    12   ar
    18    12    13    2
    19    12    14   ar
    20    14    15   ar
    21    15    16    2
    22     5     6   ar
    23     6     7   ar
    24     7     8    1
    25    23    24    1
    26    24    25    2
    27    25    26    1
    28    26    27    2
    29    26    21    1
    30     7     1   ar
    31    15     9   ar
    32    14    17    1
@<TRIPOS>MOLECULE
*****
 30 32 0 0 0
SMALL
GASTEIGER

@<TRIPOS>ATOM
      1 C          63.2395   87.8329   12.5245 C.ar    1  UNL1        0.1682
      2 C          62.4705   87.0971   11.4675 C.ar    1  UNL1        0.0945
      3 CL         61.8270   87.8545   10.3441 Cl      1  UNL1       -0.0790
      4 C          62.3450   85.6038   11.5339 C.ar    1  UNL1        0.0338
      5 C          62.9886   84.8464   12.6574 C.ar    1  UNL1        0.0893
      6 C          63.7576   85.5822   13.7144 C.ar    1  UNL1        0.0338
      7 C          63.8830   87.0754   13.6480 C.ar    1  UNL1        0.0945
      8 CL         64.6520   87.8113   14.7050 Cl      1  UNL1       -0.0790
      9 N          62.8632   83.3531   12.7239 N.ar    1  UNL1       -0.1793
     10 N          61.6626   82.7294   13.3718 N.ar    1  UNL1       -0.1460
     11 C          61.5372   81.2361   13.4382 C.ar    1  UNL1        0.2247
     12 C          62.6123   80.3665   12.8568 C.ar    1  UNL1        0.2904
     13 O          62.4869   78.8733   12.9232 O.2     1  UNL1       -0.2646
     14 N          63.8128   80.9903   12.2089 N.ar    1  UNL1       -0.2711
     15 C          63.9382   82.4835   12.1425 C.ar    1  UNL1        0.3503
     16 O          65.1388   83.1072   11.4946 O.2     1  UNL1       -0.2446
     17 H          64.5184   80.4195   11.8273 H       1  UNL1        0.1736
     18 C          60.3367   80.6124   14.0861 C.1     1  UNL1        0.1265
     19 N          59.1362   79.9887   14.7339 N.1     1  UNL1       -0.1890
     20 O          63.3649   89.3262   12.4581 O.3     1  UNL1       -0.4335
     21 C          65.3501   91.6997   14.9432 C.3     1  UNL1        0.1066
     22 C          64.9859   90.9222   13.7132 C.2     1  UNL1        0.0422
     23 C          63.7291   90.1037   13.6881 C.2     1  UNL1        0.2424
     24 N          62.8367   90.0626   14.8930 N.2     1  UNL1       -0.1186
     25 N          63.2009   90.8401   16.1229 N.am    1  UNL1       -0.0761
     26 C          64.4576   91.6587   16.1480 C.2     1  UNL1        0.2665
     27 O          64.8218   92.4362   17.3780 O.2     1  UNL1       -0.2711
     28 C          67.8102   92.0223   15.7138 C.3     1  UNL1        0.0008
     29 C          66.6068   92.5183   14.9682 C.3     1  UNL1        0.0130
     30 C          66.6602   93.8328   14.2477 C.3     1  UNL1        0.0008
@<TRIPOS>BOND
     1    28    29    1
     2    29    30    1
     3    29    21    1
     4    21    22    1
     5    22    23    2
     6    23    20    1
     7    20     1    1
     8     1     2   ar
     9     2     3    1
    10     2     4   ar
    11     4     5   ar
    12     5     9    1
    13     9    10   ar
    14    10    11   ar
    15    11    18    1
    16    18    19    3
    17    11    12   ar
    18    12    13    2
    19    12    14   ar
    20    14    15   ar
    21    15    16    2
    22     5     6   ar
    23     6     7   ar
    24     7     8    1
    25    23    24    1
    26    24    25    2
    27    25    26    1
    28    26    27    2
    29    26    21    1
    30     7     1   ar
    31    15     9   ar
    32    14    17    1
@<TRIPOS>MOLECULE
*****
 30 32 0 0 0
SMALL
GASTEIGER

@<TRIPOS>ATOM
      1 C          64.0012   90.5749   13.0077 C.ar    1  UNL1        0.1682
      2 C          63.3813   89.6766   11.9786 C.ar    1  UNL1        0.0945
      3 CL         62.9057   90.2460   10.6749 Cl      1  UNL1       -0.0790
      4 C          63.2369   88.2091   12.2533 C.ar    1  UNL1        0.0338
      5 C          63.7125   87.6397   13.5571 C.ar    1  UNL1        0.0893
      6 C          64.3324   88.5380   14.5861 C.ar    1  UNL1        0.0338
      7 C          64.4767   90.0055   14.3114 C.ar    1  UNL1        0.0945
      8 CL         65.0967   90.9038   15.3405 Cl      1  UNL1       -0.0790
      9 N          63.5682   86.1722   13.8318 N.ar    1  UNL1       -0.1793
     10 N          63.5733   85.1925   12.6959 N.ar    1  UNL1       -0.1460
     11 C          63.4290   83.7249   12.9706 C.ar    1  UNL1        0.2247
     12 C          63.2795   83.2371   14.3812 C.ar    1  UNL1        0.2904
     13 O          63.1352   81.7695   14.6559 O.2     1  UNL1       -0.2646
     14 N          63.2744   84.2168   15.5170 N.ar    1  UNL1       -0.2711
     15 C          63.4187   85.6843   15.2423 C.ar    1  UNL1        0.3503
     16 O          63.4136   86.6640   16.3782 O.2     1  UNL1       -0.2446
     17 H          63.1763   83.8966   16.4428 H       1  UNL1        0.1736
     18 C          63.4341   82.7453   11.8347 C.1     1  UNL1        0.1265
     19 N          63.4392   81.7656   10.6989 N.1     1  UNL1       -0.1890
     20 O          64.1455   92.0424   12.7330 O.3     1  UNL1       -0.4335
     21 C          66.3264   94.2451   10.2548 C.3     1  UNL1        0.1066
     22 C          65.1574   93.7421   11.0486 C.2     1  UNL1        0.0422
     23 C          65.3147   92.5454   11.9392 C.2     1  UNL1        0.2424
     24 N          66.6411   91.8517   12.0359 N.2     1  UNL1       -0.1186
     25 N          67.8102   92.3547   11.2421 N.am    1  UNL1       -0.0761
     26 C          67.6528   93.5514   10.3515 C.2     1  UNL1        0.2665
     27 O          68.8220   94.0544    9.5577 O.2     1  UNL1       -0.2711
     28 C          66.9005   95.5047    8.0561 C.3     1  UNL1        0.0008
     29 C          66.1691   95.4418    9.3642 C.3     1  UNL1        0.0130
     30 C          65.2803   96.5757    9.7816 C.3     1  UNL1        0.0008
@<TRIPOS>BOND
     1    28    29    1
     2    29    30    1
     3    29    21    1
     4    21    22    1
     5    22    23    2
     6    23    20    1
     7    20     1    1
     8     1     2   ar
     9     2     3    1
    10     2     4   ar
    11     4     5   ar
    12     5     9    1
    13     9    10   ar
    14    10    11   ar
    15    11    18    1
    16    18    19    3
    17    11    12   ar
    18    12    13    2
    19    12    14   ar
    20    14    15   ar
    21    15    16    2
    22     5     6   ar
    23     6     7   ar
    24     7     8    1
    25    23    24    1
    26    24    25    2
    27    25    26    1
    28    26    27    2
    29    26    21    1
    30     7     1   ar
    31    15     9   ar
    32    14    17    1
@<TRIPOS>MOLECULE
*****
 30 32 0 0 0
SMALL
GASTEIGER

@<TRIPOS>ATOM
      1 C          62.4270   88.6210   11.5665 C.ar    1  UNL1        0.1682
      2 C          62.2066   89.6364   10.4845 C.ar    1  UNL1        0.0945
      3 CL         61.1892   89.3810    9.4123 Cl      1  UNL1       -0.0790
      4 C          63.0036   90.9071   10.4749 C.ar    1  UNL1        0.0338
      5 C          64.0210   91.1624   11.5471 C.ar    1  UNL1        0.0893
      6 C          64.2414   90.1471   12.6290 C.ar    1  UNL1        0.0338
      7 C          63.4444   88.8764   12.6387 C.ar    1  UNL1        0.0945
      8 CL         63.6649   87.8610   13.7206 Cl      1  UNL1       -0.0790
      9 N          64.8180   92.4331   11.5375 N.ar    1  UNL1       -0.1793
     10 N          65.0629   93.1551   10.2456 N.ar    1  UNL1       -0.1460
     11 C          65.8599   94.4258   10.2359 C.ar    1  UNL1        0.2247
     12 C          66.4120   94.9746   11.5181 C.ar    1  UNL1        0.2904
     13 O          67.2090   96.2453   11.5085 O.2     1  UNL1       -0.2646
     14 N          66.1672   94.2526   12.8099 N.ar    1  UNL1       -0.2711
     15 C          65.3702   92.9819   12.8196 C.ar    1  UNL1        0.3503
     16 O          65.1253   92.2600   14.1115 O.2     1  UNL1       -0.2446
     17 H          66.5296   94.6128   13.6515 H       1  UNL1        0.1736
     18 C          66.1048   95.1477    8.9441 C.1     1  UNL1        0.1265
     19 N          66.3496   95.8696    7.6523 N.1     1  UNL1       -0.1890
     20 O          61.6300   87.3503   11.5761 O.3     1  UNL1       -0.4335
     21 C          63.1138   83.6820   11.8791 C.3     1  UNL1        0.1066
     22 C          62.4590   84.9808   12.2456 C.2     1  UNL1        0.0422
     23 C          62.2849   86.0515   11.2096 C.2     1  UNL1        0.2424
     24 N          62.7655   85.8234    9.8071 N.2     1  UNL1       -0.1186
     25 N          63.4203   84.5246    9.4407 N.am    1  UNL1       -0.0761
     26 C          63.5944   83.4539   10.4767 C.2     1  UNL1        0.2665
     27 O          64.2493   82.1551   10.1101 O.2     1  UNL1       -0.2711
     28 C          64.1963   82.8416   14.0863 C.3     1  UNL1        0.0008
     29 C          63.2880   82.6113   12.9151 C.3     1  UNL1        0.0130
     30 C          62.5538   81.3103   12.7799 C.3     1  UNL1        0.0008
@<TRIPOS>BOND
     1    28    29    1
     2    29    30    1
     3    29    21    1
     4    21    22    1
     5    22    23    2
     6    23    20    1
     7    20     1    1
     8     1     2   ar
     9     2     3    1
    10     2     4   ar
    11     4     5   ar
    12     5     9    1
    13     9    10   ar
    14    10    11   ar
    15    11    18    1
    16    18    19    3
    17    11    12   ar
    18    12    13    2
    19    12    14   ar
    20    14    15   ar
    21    15    16    2
    22     5     6   ar
    23     6     7   ar
    24     7     8    1
    25    23    24    1
    26    24    25    2
    27    25    26    1
    28    26    27    2
    29    26    21    1
    30     7     1   ar
    31    15     9   ar
    32    14    17    1
@<TRIPOS>MOLECULE
*****
 30 32 0 0 0
SMALL
GASTEIGER

@<TRIPOS>ATOM
      1 C          62.4279   88.6227   11.5647 C.ar    1  UNL1        0.1682
      2 C          63.4443   88.8792   12.6376 C.ar    1  UNL1        0.0945
      3 CL         63.6641   87.8647   13.7204 Cl      1  UNL1       -0.0790
      4 C          64.2410   90.1501   12.6276 C.ar    1  UNL1        0.0338
      5 C          64.0212   91.1645   11.5447 C.ar    1  UNL1        0.0893
      6 C          63.0048   90.9081   10.4719 C.ar    1  UNL1        0.0338
      7 C          62.2081   89.6372   10.4819 C.ar    1  UNL1        0.0945
      8 CL         61.1916   89.3808    9.4089 Cl      1  UNL1       -0.0790
      9 N          64.8179   92.4354   11.5348 N.ar    1  UNL1       -0.1793
     10 N          65.0613   93.1579   10.2429 N.ar    1  UNL1       -0.1460
     11 C          65.8580   94.4288   10.2329 C.ar    1  UNL1        0.2247
     12 C          66.4113   94.9772   11.5148 C.ar    1  UNL1        0.2904
     13 O          67.2080   96.2481   11.5048 O.2     1  UNL1       -0.2646
     14 N          66.1679   94.2547   12.8066 N.ar    1  UNL1       -0.2711
     15 C          65.3712   92.9839   12.8166 C.ar    1  UNL1        0.3503
     16 O          65.1278   92.2614   14.1084 O.2     1  UNL1       -0.2446
     17 H          66.5311   94.6147   13.6479 H       1  UNL1        0.1736
     18 C          66.1014   95.1513    8.9411 C.1     1  UNL1        0.1265
     19 N          66.3448   95.8738    7.6494 N.1     1  UNL1       -0.1890
     20 O          61.6312   87.3518   11.5747 O.3     1  UNL1       -0.4335
     21 C          63.1243   83.6881   11.8869 C.3     1  UNL1        0.1066
     22 C          62.4686   84.9872   12.2507 C.2     1  UNL1        0.0422
     23 C          62.2869   86.0527   11.2107 C.2     1  UNL1        0.2424
     24 N          62.7609   85.8192    9.8069 N.2     1  UNL1       -0.1186
     25 N          63.4166   84.5201    9.4431 N.am    1  UNL1       -0.0761
     26 C          63.5983   83.4546   10.4830 C.2     1  UNL1        0.2665
     27 O          64.2540   82.1555   10.1191 O.2     1  UNL1       -0.2711
     28 C          62.6083   81.3031   12.7786 C.3     1  UNL1        0.0008
     29 C          63.3061   82.6225   12.9268 C.3     1  UNL1        0.0130
     30 C          64.1856   82.8764   14.1151 C.3     1  UNL1        0.0008
@<TRIPOS>BOND
     1    28    29    1
     2    29    30    1
     3    29    21    1
     4    21    22    1
     5    22    23    2
     6    23    20    1
     7    20     1    1
     8     1     2   ar
     9     2     3    1
    10     2     4   ar
    11     4     5   ar
    12     5     9    1
    13     9    10   ar
    14    10    11   ar
    15    11    18    1
    16    18    19    3
    17    11    12   ar
    18    12    13    2
    19    12    14   ar
    20    14    15   ar
    21    15    16    2
    22     5     6   ar
    23     6     7   ar
    24     7     8    1
    25    23    24    1
    26    24    25    2
    27    25    26    1
    28    26    27    2
    29    26    21    1
    30     7     1   ar
    31    15     9   ar
    32    14    17    1
@<TRIPOS>MOLECULE
*****
 30 32 0 0 0
SMALL
GASTEIGER

@<TRIPOS>ATOM
      1 C          62.7416   88.8202   11.8498 C.ar    1  UNL1        0.1682
      2 C          63.5442   88.3542   13.0282 C.ar    1  UNL1        0.0945
      3 CL         64.3010   89.3468   13.8600 Cl      1  UNL1       -0.0790
      4 C          63.5900   86.8955   13.3748 C.ar    1  UNL1        0.0338
      5 C          62.8332   85.9028   12.5429 C.ar    1  UNL1        0.0893
      6 C          62.0306   86.3689   11.3645 C.ar    1  UNL1        0.0338
      7 C          61.9848   87.8276   11.0180 C.ar    1  UNL1        0.0945
      8 CL         61.1821   88.2937    9.8395 Cl      1  UNL1       -0.0790
      9 N          62.8790   84.4441   12.8894 N.ar    1  UNL1       -0.1793
     10 N          62.9172   83.4150   11.7987 N.ar    1  UNL1       -0.1460
     11 C          62.9630   81.9563   12.1453 C.ar    1  UNL1        0.2247
     12 C          62.9706   81.5267   13.5825 C.ar    1  UNL1        0.2904
     13 O          63.0164   80.0680   13.9290 O.2     1  UNL1       -0.2646
     14 N          62.9324   82.5558   14.6731 N.ar    1  UNL1       -0.2711
     15 C          62.8866   84.0145   14.3265 C.ar    1  UNL1        0.3503
     16 O          62.8484   85.0437   15.4172 O.2     1  UNL1       -0.2446
     17 H          62.9374   82.2739   15.6163 H       1  UNL1        0.1736
     18 C          63.0012   80.9271   11.0547 C.1     1  UNL1        0.1265
     19 N          63.0394   79.8980    9.9641 N.1     1  UNL1       -0.1890
     20 O          62.6957   90.2789   11.5032 O.3     1  UNL1       -0.4335
     21 C          65.9495   92.5381   11.2599 C.3     1  UNL1        0.1066
     22 C          64.8165   91.6377   10.8657 C.2     1  UNL1        0.0422
     23 C          63.8288   91.1794   11.8975 C.2     1  UNL1        0.2424
     24 N          63.9742   91.6216   13.3234 N.2     1  UNL1       -0.1186
     25 N          65.1072   92.5220   13.7176 N.am    1  UNL1       -0.0761
     26 C          66.0949   92.9802   12.6858 C.2     1  UNL1        0.2665
     27 O          67.2280   93.8807   13.0800 O.2     1  UNL1       -0.2711
     28 C          66.8189   94.3685    9.6339 C.3     1  UNL1        0.0008
     29 C          66.9372   92.9963   10.2281 C.3     1  UNL1        0.0130
     30 C          68.0432   92.0824    9.7906 C.3     1  UNL1        0.0008
@<TRIPOS>BOND
     1    28    29    1
     2    29    30    1
     3    29    21    1
     4    21    22    1
     5    22    23    2
     6    23    20    1
     7    20     1    1
     8     1     2   ar
     9     2     3    1
    10     2     4   ar
    11     4     5   ar
    12     5     9    1
    13     9    10   ar
    14    10    11   ar
    15    11    18    1
    16    18    19    3
    17    11    12   ar
    18    12    13    2
    19    12    14   ar
    20    14    15   ar
    21    15    16    2
    22     5     6   ar
    23     6     7   ar
    24     7     8    1
    25    23    24    1
    26    24    25    2
    27    25    26    1
    28    26    27    2
    29    26    21    1
    30     7     1   ar
    31    15     9   ar
    32    14    17    1
@<TRIPOS>MOLECULE
*****
 30 32 0 0 0
SMALL
GASTEIGER

@<TRIPOS>ATOM
      1 C          62.7982   88.8693   12.3116 C.ar    1  UNL1        0.1682
      2 C          62.0984   88.2964   11.1148 C.ar    1  UNL1        0.0945
      3 CL         61.3454   89.1989   10.1830 Cl      1  UNL1       -0.0790
      4 C          62.1517   86.8209   10.8500 C.ar    1  UNL1        0.0338
      5 C          62.9048   85.9184   11.7819 C.ar    1  UNL1        0.0893
      6 C          63.6045   86.4914   12.9786 C.ar    1  UNL1        0.0338
      7 C          63.5512   87.9668   13.2435 C.ar    1  UNL1        0.0945
      8 CL         64.2509   88.5398   14.4402 Cl      1  UNL1       -0.0790
      9 N          62.9581   84.4429   11.5171 N.ar    1  UNL1       -0.1793
     10 N          62.6604   83.4716   12.6208 N.ar    1  UNL1       -0.1460
     11 C          62.7138   81.9961   12.3560 C.ar    1  UNL1        0.2247
     12 C          63.0648   81.4920   10.9875 C.ar    1  UNL1        0.2904
     13 O          63.1181   80.0165   10.7227 O.2     1  UNL1       -0.2646
     14 N          63.3624   82.4633    9.8839 N.ar    1  UNL1       -0.2711
     15 C          63.3091   83.9387   10.1487 C.ar    1  UNL1        0.3503
     16 O          63.6068   84.9101    9.0450 O.2     1  UNL1       -0.2446
     17 H          63.5928   82.1324    8.9857 H       1  UNL1        0.1736
     18 C          62.4161   81.0248   13.4596 C.1     1  UNL1        0.1265
     19 N          62.1185   80.0535   14.5631 N.1     1  UNL1       -0.1890
     20 O          62.7448   90.3448   12.5764 O.3     1  UNL1       -0.4335
     21 C          66.1391   92.3886   12.8038 C.3     1  UNL1        0.1066
     22 C          64.9821   91.5153   13.1889 C.2     1  UNL1        0.0422
     23 C          63.9020   91.2182   12.1913 C.2     1  UNL1        0.2424
     24 N          63.9790   91.7945   10.8086 N.2     1  UNL1       -0.1186
     25 N          65.1361   92.6679   10.4235 N.am    1  UNL1       -0.0761
     26 C          66.2162   92.9649   11.4211 C.2     1  UNL1        0.2665
     27 O          67.3733   93.8383   11.0359 O.2     1  UNL1       -0.2711
     28 C          68.4724   91.8616   13.8177 C.3     1  UNL1        0.0008
     29 C          67.2192   92.6857   13.8014 C.3     1  UNL1        0.0130
     30 C          67.0461   93.8068   14.7827 C.3     1  UNL1        0.0008
@<TRIPOS>BOND
     1    28    29    1
     2    29    30    1
     3    29    21    1
     4    21    22    1
     5    22    23    2
     6    23    20    1
     7    20     1    1
     8     1     2   ar
     9     2     3    1
    10     2     4   ar
    11     4     5   ar
    12     5     9    1
    13     9    10   ar
    14    10    11   ar
    15    11    18    1
    16    18    19    3
    17    11    12   ar
    18    12    13    2
    19    12    14   ar
    20    14    15   ar
    21    15    16    2
    22     5     6   ar
    23     6     7   ar
    24     7     8    1
    25    23    24    1
    26    24    25    2
    27    25    26    1
    28    26    27    2
    29    26    21    1
    30     7     1   ar
    31    15     9   ar
    32    14    17    1
@<TRIPOS>MOLECULE
*****
 30 32 0 0 0
SMALL
GASTEIGER

@<TRIPOS>ATOM
      1 C          62.9597   89.0453   12.4737 C.ar    1  UNL1        0.1682
      2 C          62.4157   88.0513   11.4907 C.ar    1  UNL1        0.0945
      3 CL         61.7213   88.5272   10.2493 Cl      1  UNL1       -0.0790
      4 C          62.5662   86.5815   11.7493 C.ar    1  UNL1        0.0338
      5 C          63.2607   86.1056   12.9909 C.ar    1  UNL1        0.0893
      6 C          63.8046   87.0996   13.9737 C.ar    1  UNL1        0.0338
      7 C          63.6541   88.5694   13.7151 C.ar    1  UNL1        0.0945
      8 CL         64.1981   89.5634   14.6981 Cl      1  UNL1       -0.0790
      9 N          63.4112   84.6357   13.2494 N.ar    1  UNL1       -0.1793
     10 N          63.2205   83.6541   12.1313 N.ar    1  UNL1       -0.1460
     11 C          63.3710   82.1843   12.3899 C.ar    1  UNL1        0.2247
     12 C          63.7122   81.6960   13.7666 C.ar    1  UNL1        0.2904
     13 O          63.8627   80.2262   14.0252 O.2     1  UNL1       -0.2646
     14 N          63.9028   82.6776   14.8847 N.ar    1  UNL1       -0.2711
     15 C          63.7523   84.1475   14.6261 C.ar    1  UNL1        0.3503
     16 O          63.9429   85.1291   15.7442 O.2     1  UNL1       -0.2446
     17 H          64.1266   82.3571   15.7882 H       1  UNL1        0.1736
     18 C          63.1804   81.2027   11.2718 C.1     1  UNL1        0.1265
     19 N          62.9898   80.2211   10.1537 N.1     1  UNL1       -0.1890
     20 O          62.8092   90.5152   12.2151 O.3     1  UNL1       -0.4335
     21 C          66.2626   92.4348   12.5883 C.3     1  UNL1        0.1066
     22 C          65.0587   91.6051   12.9235 C.2     1  UNL1        0.0422
     23 C          64.0131   91.3449   11.8799 C.2     1  UNL1        0.2424
     24 N          64.1714   91.9142   10.5013 N.2     1  UNL1       -0.1186
     25 N          65.3752   92.7438   10.1661 N.am    1  UNL1       -0.0761
     26 C          66.4208   93.0041   11.2097 C.2     1  UNL1        0.2665
     27 O          67.6248   93.8338   10.8745 O.2     1  UNL1       -0.2711
     28 C          68.5692   91.8830   13.6490 C.3     1  UNL1        0.0008
     29 C          67.3082   92.6950   13.6319 C.3     1  UNL1        0.0130
     30 C          67.0928   93.7674   14.6583 C.3     1  UNL1        0.0008
@<TRIPOS>BOND
     1    28    29    1
     2    29    30    1
     3    29    21    1
     4    21    22    1
     5    22    23    2
     6    23    20    1
     7    20     1    1
     8     1     2   ar
     9     2     3    1
    10     2     4   ar
    11     4     5   ar
    12     5     9    1
    13     9    10   ar
    14    10    11   ar
    15    11    18    1
    16    18    19    3
    17    11    12   ar
    18    12    13    2
    19    12    14   ar
    20    14    15   ar
    21    15    16    2
    22     5     6   ar
    23     6     7   ar
    24     7     8    1
    25    23    24    1
    26    24    25    2
    27    25    26    1
    28    26    27    2
    29    26    21    1
    30     7     1   ar
    31    15     9   ar
    32    14    17    1
@<TRIPOS>MOLECULE
*****
 30 32 0 0 0
SMALL
GASTEIGER

@<TRIPOS>ATOM
      1 C          62.6734   89.0502   12.3292 C.ar    1  UNL1        0.1682
      2 C          63.4729   88.1518   13.2257 C.ar    1  UNL1        0.0945
      3 CL         64.1807   88.7208   14.4195 Cl      1  UNL1       -0.0790
      4 C          63.5645   86.6844   12.9285 C.ar    1  UNL1        0.0338
      5 C          62.8566   86.1154   11.7346 C.ar    1  UNL1        0.0893
      6 C          62.0572   87.0138   10.8381 C.ar    1  UNL1        0.0338
      7 C          61.9655   88.4812   11.1354 C.ar    1  UNL1        0.0945
      8 CL         61.1660   89.3795   10.2388 Cl      1  UNL1       -0.0790
      9 N          62.9482   84.6480   11.4373 N.ar    1  UNL1       -0.1793
     10 N          62.7557   83.6465   12.5374 N.ar    1  UNL1       -0.1460
     11 C          62.8473   82.1791   12.2401 C.ar    1  UNL1        0.2247
     12 C          63.1314   81.7132   10.8428 C.ar    1  UNL1        0.2904
     13 O          63.2230   80.2458   10.5455 O.2     1  UNL1       -0.2646
     14 N          63.3239   82.7147    9.7429 N.ar    1  UNL1       -0.2711
     15 C          63.2323   84.1821   10.0401 C.ar    1  UNL1        0.3503
     16 O          63.4247   85.1836    8.9401 O.2     1  UNL1       -0.2446
     17 H          63.5103   82.4090    8.8258 H       1  UNL1        0.1736
     18 C          62.6549   81.1776   13.3400 C.1     1  UNL1        0.1265
     19 N          62.4624   80.1761   14.4400 N.1     1  UNL1       -0.1890
     20 O          62.5818   90.5176   12.6264 O.3     1  UNL1       -0.4335
     21 C          65.9164   92.5760   11.9993 C.3     1  UNL1        0.1066
     22 C          64.6693   91.7843   11.7388 C.2     1  UNL1        0.0422
     23 C          63.8289   91.3093   12.8870 C.2     1  UNL1        0.2424
     24 N          64.2357   91.6260   14.2956 N.2     1  UNL1       -0.1186
     25 N          65.4828   92.4177   14.5560 N.am    1  UNL1       -0.0761
     26 C          66.3231   92.8927   13.4079 C.2     1  UNL1        0.2665
     27 O          67.5703   93.6845   13.6685 O.2     1  UNL1       -0.2711
     28 C          66.5375   94.4192   10.2769 C.3     1  UNL1        0.0008
     29 C          66.7567   93.0510   10.8512 C.3     1  UNL1        0.0130
     30 C          67.8164   92.1578   10.2774 C.3     1  UNL1        0.0008
@<TRIPOS>BOND
     1    28    29    1
     2    29    30    1
     3    29    21    1
     4    21    22    1
     5    22    23    2
     6    23    20    1
     7    20     1    1
     8     1     2   ar
     9     2     3    1
    10     2     4   ar
    11     4     5   ar
    12     5     9    1
    13     9    10   ar
    14    10    11   ar
    15    11    18    1
    16    18    19    3
    17    11    12   ar
    18    12    13    2
    19    12    14   ar
    20    14    15   ar
    21    15    16    2
    22     5     6   ar
    23     6     7   ar
    24     7     8    1
    25    23    24    1
    26    24    25    2
    27    25    26    1
    28    26    27    2
    29    26    21    1
    30     7     1   ar
    31    15     9   ar
    32    14    17    1
