@<TRIPOS>MOLECULE
*****
 36 39 0 0 0
SMALL
GASTEIGER

@<TRIPOS>ATOM
      1 C          62.6731   85.1672   10.1328 C.3     1  UNL1        0.0545
      2 C          62.5033   85.1323    8.6428 C.3     1  UNL1        0.0162
      3 C          61.5301   86.2084    8.2619 C.3     1  UNL1        0.0100
      4 C          61.0986   86.9083    9.5165 C.3     1  UNL1        0.0704
      5 C          61.8050   86.2648   10.6727 C.3     1  UNL1        0.0243
      6 C          60.4929   87.7808   10.5756 C.2     1  UNL1        0.2248
      7 O          59.0017   87.8903   10.6949 O.2     1  UNL1       -0.2749
      8 N          61.3785   88.5440   11.5155 N.am    1  UNL1       -0.2760
      9 C          60.7729   89.4166   12.5747 C.3     1  UNL1        0.1149
     10 C          61.6585   90.1797   13.5146 C.3     1  UNL1        0.1137
     11 N          63.1497   90.0702   13.3952 N.pl3   1  UNL1       -0.2897
     12 C          63.7553   89.1977   12.3361 C.3     1  UNL1        0.1137
     13 C          62.8697   88.4346   11.3962 C.3     1  UNL1        0.1149
     14 C          64.0353   90.8334   14.3351 C.ar    1  UNL1        0.1317
     15 C          65.4774   91.0596   13.9895 C.ar    1  UNL1        0.0382
     16 C          66.3630   91.8227   14.9293 C.ar    1  UNL1        0.0757
     17 C          65.8066   92.3595   16.2147 C.ar    1  UNL1        0.0246
     18 C          64.3647   92.1333   16.5603 C.ar    1  UNL1        0.1002
     19 N          63.4790   91.3702   15.6204 N.ar    1  UNL1       -0.2292
     20 C          67.8050   92.0490   14.5838 C.3     1  UNL1        0.4187
     21 F          69.2470   92.2752   14.2383 F       1  UNL1       -0.1659
     22 F          68.1644   91.9802   16.0385 F       1  UNL1       -0.1659
     23 F          67.4457   92.1177   13.1291 F       1  UNL1       -0.1659
     24 C          60.2656   87.7342    8.5817 C.3     1  UNL1        0.0082
     25 C          59.2404   87.0738    7.7082 C.3     1  UNL1        0.0005
     26 C          60.2176   88.6957    8.3768 C.3     1  UNL1        0.0005
     27 N          63.5561   84.2631   10.9409 N.3     1  UNL1       -0.2975
     28 H          63.8798   83.5283   10.3118 H       1  UNL1        0.1232
     29 C          62.9965   84.2995   13.4778 C.3     1  UNL1        0.1591
     30 C          62.4544   83.6167   14.6983 C.3     1  UNL1        0.1729
     31 O          61.9297   82.2148   14.6027 O.3     1  UNL1       -0.3511
     32 C          61.9471   81.4956   13.2865 C.3     1  UNL1        0.1437
     33 C          62.4893   82.1783   12.0659 C.3     1  UNL1        0.0503
     34 C          63.0140   83.5803   12.1616 C.3     1  UNL1        0.0865
     35 C          64.2788   86.1373   14.7924 C.3     1  UNL1        0.1742
     36 O          63.5212   85.7015   13.5734 O.3     1  UNL1       -0.3496
@<TRIPOS>BOND
     1    35    36    1
     2    29    36    1
     3    29    30    1
     4    30    31    1
     5    31    32    1
     6    32    33    1
     7    33    34    1
     8    34    27    1
     9     1    27    1
    10     1     2    1
    11     2     3    1
    12     3     4    1
    13     4     6    1
    14     6     7    2
    15     6     8   am
    16     8     9    1
    17     9    10    1
    18    10    11    1
    19    11    14    1
    20    14    15   ar
    21    15    16   ar
    22    16    20    1
    23    20    21    1
    24    20    22    1
    25    20    23    1
    26    16    17   ar
    27    17    18   ar
    28    18    19   ar
    29    11    12    1
    30    12    13    1
    31     4    24    1
    32    24    25    1
    33    24    26    1
    34     4     5    1
    35    34    29    1
    36     5     1    1
    37    13     8    1
    38    19    14   ar
    39    27    28    1
@<TRIPOS>MOLECULE
*****
 36 39 0 0 0
SMALL
GASTEIGER

@<TRIPOS>ATOM
      1 C          62.5690   85.1750    9.8013 C.3     1  UNL1        0.0545
      2 C          62.0756   85.0513    8.3902 C.3     1  UNL1        0.0162
      3 C          61.0877   86.1534    8.1463 C.3     1  UNL1        0.0100
      4 C          60.9706   86.9583    9.4066 C.3     1  UNL1        0.0704
      5 C          61.8861   86.3536   10.4295 C.3     1  UNL1        0.0243
      6 C          60.6481   87.9320   10.5010 C.2     1  UNL1        0.2248
      7 O          59.3324   87.8477   11.2164 O.2     1  UNL1       -0.2749
      8 N          61.6413   88.9903   10.8800 N.am    1  UNL1       -0.2760
      9 C          61.3189   89.9642   11.9744 C.3     1  UNL1        0.1149
     10 C          62.3121   91.0224   12.3533 C.3     1  UNL1        0.1137
     11 N          63.6278   91.1068   11.6380 N.pl3   1  UNL1       -0.2897
     12 C          63.9503   90.1329   10.5436 C.3     1  UNL1        0.1137
     13 C          62.9570   89.0747   10.1646 C.3     1  UNL1        0.1149
     14 C          64.6211   92.1650   12.0169 C.ar    1  UNL1        0.1317
     15 C          65.1743   93.0842   10.9685 C.ar    1  UNL1        0.0382
     16 C          66.1676   94.1424   11.3475 C.ar    1  UNL1        0.0757
     17 C          66.6076   94.2815   12.7747 C.ar    1  UNL1        0.0246
     18 C          66.0544   93.3623   13.8230 C.ar    1  UNL1        0.1002
     19 N          65.0611   92.3041   13.4441 N.ar    1  UNL1       -0.2292
     20 C          66.7208   95.0617   10.2992 C.3     1  UNL1        0.4187
     21 F          67.2741   95.9809    9.2509 F       1  UNL1       -0.1659
     22 F          66.8343   93.9079    9.3474 F       1  UNL1       -0.1659
     23 F          66.6074   96.2154   11.2510 F       1  UNL1       -0.1659
     24 C          59.9878   87.7665    8.6126 C.3     1  UNL1        0.0082
     25 C          58.8975   87.0789    7.8454 C.3     1  UNL1        0.0005
     26 C          59.8660   88.7299    8.4523 C.3     1  UNL1        0.0005
     27 N          63.5697   84.2777   10.4673 N.3     1  UNL1       -0.2975
     28 H          63.8877   83.6151    9.7600 H       1  UNL1        0.1232
     29 C          63.1183   84.1172   13.0208 C.3     1  UNL1        0.1591
     30 C          62.7204   83.3110   14.2215 C.3     1  UNL1        0.1729
     31 O          62.3761   81.8590   14.0694 O.3     1  UNL1       -0.3511
     32 C          62.4296   81.2132   12.7166 C.3     1  UNL1        0.1437
     33 C          62.8275   82.0194   11.5160 C.3     1  UNL1        0.0503
     34 C          63.1718   83.4714   11.6681 C.3     1  UNL1        0.0865
     35 C          64.1215   86.0562   14.4294 C.3     1  UNL1        0.1742
     36 O          63.4626   85.5692   13.1729 O.3     1  UNL1       -0.3496
@<TRIPOS>BOND
     1    35    36    1
     2    29    36    1
     3    29    30    1
     4    30    31    1
     5    31    32    1
     6    32    33    1
     7    33    34    1
     8    34    27    1
     9     1    27    1
    10     1     2    1
    11     2     3    1
    12     3     4    1
    13     4     6    1
    14     6     7    2
    15     6     8   am
    16     8     9    1
    17     9    10    1
    18    10    11    1
    19    11    14    1
    20    14    15   ar
    21    15    16   ar
    22    16    20    1
    23    20    21    1
    24    20    22    1
    25    20    23    1
    26    16    17   ar
    27    17    18   ar
    28    18    19   ar
    29    11    12    1
    30    12    13    1
    31     4    24    1
    32    24    25    1
    33    24    26    1
    34     4     5    1
    35    34    29    1
    36     5     1    1
    37    13     8    1
    38    19    14   ar
    39    27    28    1
@<TRIPOS>MOLECULE
*****
 36 39 0 0 0
SMALL
GASTEIGER

@<TRIPOS>ATOM
      1 C          66.3080   92.2377   12.8614 C.3     1  UNL1        0.0545
      2 C          66.1888   92.4523   14.3412 C.3     1  UNL1        0.0162
      3 C          65.0044   91.6718   14.8290 C.3     1  UNL1        0.0100
      4 C          64.3915   90.9747   13.6507 C.3     1  UNL1        0.0704
      5 C          65.1972   91.3245   12.4347 C.3     1  UNL1        0.0243
      6 C          63.5745   90.1694   12.6843 C.2     1  UNL1        0.2248
      7 O          62.8096   90.8579   11.5930 O.2     1  UNL1       -0.2749
      8 N          63.5224   88.6755   12.8092 N.am    1  UNL1       -0.2760
      9 C          62.7054   87.8701   11.8429 C.3     1  UNL1        0.1149
     10 C          62.6533   86.3762   11.9678 C.3     1  UNL1        0.1137
     11 N          63.4182   85.6877   13.0592 N.pl3   1  UNL1       -0.2897
     12 C          64.2351   86.4931   14.0255 C.3     1  UNL1        0.1137
     13 C          64.2872   87.9870   13.9005 C.3     1  UNL1        0.1149
     14 C          63.3661   84.1938   13.1841 C.ar    1  UNL1        0.1317
     15 C          63.2674   83.3413   11.9538 C.ar    1  UNL1        0.0382
     16 C          63.2153   81.8474   12.0788 C.ar    1  UNL1        0.0757
     17 C          63.2619   81.2061   13.4340 C.ar    1  UNL1        0.0246
     18 C          63.3605   82.0586   14.6642 C.ar    1  UNL1        0.1002
     19 N          63.4126   83.5525   14.5392 N.ar    1  UNL1       -0.2292
     20 C          63.1167   80.9949   10.8486 C.3     1  UNL1        0.4187
     21 F          63.0180   80.1423    9.6184 F       1  UNL1       -0.1659
     22 F          62.6615   79.8375   11.6872 F       1  UNL1       -0.1659
     23 F          63.5718   82.1523   10.0100 F       1  UNL1       -0.1659
     24 C          63.4151   90.4567   14.6646 C.3     1  UNL1        0.0082
     25 C          63.7683   90.4723   16.1223 C.3     1  UNL1        0.0005
     26 C          62.5114   90.0708   14.6087 C.3     1  UNL1        0.0005
     27 N          67.3542   92.8319   11.9657 N.3     1  UNL1       -0.2975
     28 H          68.0833   93.2066   12.5727 H       1  UNL1        0.1232
     29 C          67.8025   94.1372    9.7645 C.3     1  UNL1        0.1591
     30 C          67.4352   95.2292    8.8041 C.3     1  UNL1        0.1729
     31 O          66.2522   96.1079    9.0842 O.3     1  UNL1       -0.3511
     32 C          65.4366   95.8946   10.3248 C.3     1  UNL1        0.1437
     33 C          65.8039   94.8026   11.2853 C.3     1  UNL1        0.0503
     34 C          66.9869   93.9239   11.0052 C.3     1  UNL1        0.0865
     35 C          68.8236   92.0293    8.6402 C.3     1  UNL1        0.1742
     36 O          68.9855   93.2585    9.4844 O.3     1  UNL1       -0.3496
@<TRIPOS>BOND
     1    35    36    1
     2    29    36    1
     3    29    30    1
     4    30    31    1
     5    31    32    1
     6    32    33    1
     7    33    34    1
     8    34    27    1
     9     1    27    1
    10     1     2    1
    11     2     3    1
    12     3     4    1
    13     4     6    1
    14     6     7    2
    15     6     8   am
    16     8     9    1
    17     9    10    1
    18    10    11    1
    19    11    14    1
    20    14    15   ar
    21    15    16   ar
    22    16    20    1
    23    20    21    1
    24    20    22    1
    25    20    23    1
    26    16    17   ar
    27    17    18   ar
    28    18    19   ar
    29    11    12    1
    30    12    13    1
    31     4    24    1
    32    24    25    1
    33    24    26    1
    34     4     5    1
    35    34    29    1
    36     5     1    1
    37    13     8    1
    38    19    14   ar
    39    27    28    1
@<TRIPOS>MOLECULE
*****
 36 39 0 0 0
SMALL
GASTEIGER

@<TRIPOS>ATOM
      1 C          63.4593   91.4350   11.1932 C.3     1  UNL1        0.0545
      2 C          64.6375   92.2920   10.8366 C.3     1  UNL1        0.0162
      3 C          65.5250   92.3850   12.0424 C.3     1  UNL1        0.0100
      4 C          64.8952   91.5854   13.1442 C.3     1  UNL1        0.0704
      5 C          63.6185   90.9983   12.6194 C.3     1  UNL1        0.0243
      6 C          64.5157   90.8776   14.4111 C.2     1  UNL1        0.2248
      7 O          64.4792   91.6297   15.7084 O.2     1  UNL1       -0.2749
      8 N          64.1725   89.4177   14.3806 N.am    1  UNL1       -0.2760
      9 C          63.7930   88.7098   15.6474 C.3     1  UNL1        0.1149
     10 C          63.4499   87.2499   15.6169 C.3     1  UNL1        0.1137
     11 N          63.4864   86.4978   14.3196 N.pl3   1  UNL1       -0.2897
     12 C          63.8659   87.2057   13.0528 C.3     1  UNL1        0.1137
     13 C          64.2090   88.6657   13.0833 C.3     1  UNL1        0.1149
     14 C          63.1433   85.0379   14.2890 C.ar    1  UNL1        0.1317
     15 C          63.2497   84.2692   13.0053 C.ar    1  UNL1        0.0382
     16 C          62.9066   82.8093   12.9748 C.ar    1  UNL1        0.0757
     17 C          62.4571   82.1181   14.2279 C.ar    1  UNL1        0.0246
     18 C          62.3507   82.8868   15.5115 C.ar    1  UNL1        0.1002
     19 N          62.6938   84.3467   15.5420 N.ar    1  UNL1       -0.2292
     20 C          63.0130   82.0405   11.6912 C.3     1  UNL1        0.4187
     21 F          63.1195   81.2718   10.4076 F       1  UNL1       -0.1659
     22 F          62.9001   80.7532   12.4528 F       1  UNL1       -0.1659
     23 F          63.1260   83.3278   10.9296 F       1  UNL1       -0.1659
     24 C          66.0924   92.0246   13.9338 C.3     1  UNL1        0.0082
     25 C          66.4333   93.4822   14.0312 C.3     1  UNL1        0.0005
     26 C          66.7788   91.5502   14.4559 C.3     1  UNL1        0.0005
     27 N          62.3216   91.0774   10.2834 N.3     1  UNL1       -0.2975
     28 H          61.8888   91.9546    9.9944 H       1  UNL1        0.1232
     29 C          61.2674   88.7145   10.5191 C.3     1  UNL1        0.1591
     30 C          60.1624   87.8284   11.0127 C.3     1  UNL1        0.1729
     31 O          59.0064   88.4191   11.7644 O.3     1  UNL1       -0.3511
     32 C          58.9556   89.8958   12.0224 C.3     1  UNL1        0.1437
     33 C          60.0606   90.7819   11.5287 C.3     1  UNL1        0.0503
     34 C          61.2165   90.1912   10.7771 C.3     1  UNL1        0.0865
     35 C          62.3641   86.7003    9.2983 C.3     1  UNL1        0.1742
     36 O          62.4233   88.1238    9.7674 O.3     1  UNL1       -0.3496
@<TRIPOS>BOND
     1    35    36    1
     2    29    36    1
     3    29    30    1
     4    30    31    1
     5    31    32    1
     6    32    33    1
     7    33    34    1
     8    34    27    1
     9     1    27    1
    10     1     2    1
    11     2     3    1
    12     3     4    1
    13     4     6    1
    14     6     7    2
    15     6     8   am
    16     8     9    1
    17     9    10    1
    18    10    11    1
    19    11    14    1
    20    14    15   ar
    21    15    16   ar
    22    16    20    1
    23    20    21    1
    24    20    22    1
    25    20    23    1
    26    16    17   ar
    27    17    18   ar
    28    18    19   ar
    29    11    12    1
    30    12    13    1
    31     4    24    1
    32    24    25    1
    33    24    26    1
    34     4     5    1
    35    34    29    1
    36     5     1    1
    37    13     8    1
    38    19    14   ar
    39    27    28    1
@<TRIPOS>MOLECULE
*****
 36 39 0 0 0
SMALL
GASTEIGER

@<TRIPOS>ATOM
      1 C          62.0853   90.7246   11.0322 C.3     1  UNL1        0.0545
      2 C          63.0743   91.6763   10.4270 C.3     1  UNL1        0.0162
      3 C          64.2281   91.8114   11.3759 C.3     1  UNL1        0.0100
      4 C          63.9521   90.9434   12.5677 C.3     1  UNL1        0.0704
      5 C          62.6278   90.2717   12.3552 C.3     1  UNL1        0.0243
      6 C          63.9530   90.1824   13.8603 C.2     1  UNL1        0.2248
      7 O          64.1054   90.9138   15.1611 O.2     1  UNL1       -0.2749
      8 N          63.8016   88.6901   13.8523 N.am    1  UNL1       -0.2760
      9 C          63.8025   87.9291   15.1449 C.3     1  UNL1        0.1149
     10 C          63.6510   86.4368   15.1367 C.3     1  UNL1        0.1137
     11 N          63.4987   85.7055   13.8360 N.pl3   1  UNL1       -0.2897
     12 C          63.4978   86.4665   12.5434 C.3     1  UNL1        0.1137
     13 C          63.6492   87.9588   12.5515 C.3     1  UNL1        0.1149
     14 C          63.3473   84.2131   13.8278 C.ar    1  UNL1        0.1317
     15 C          63.2971   83.4715   12.5249 C.ar    1  UNL1        0.0382
     16 C          63.1457   81.9792   12.5167 C.ar    1  UNL1        0.0757
     17 C          63.0444   81.2286   13.8114 C.ar    1  UNL1        0.0246
     18 C          63.0945   81.9701   15.1143 C.ar    1  UNL1        0.1002
     19 N          63.2459   83.4624   15.1224 N.ar    1  UNL1       -0.2292
     20 C          63.0956   81.2376   11.2139 C.3     1  UNL1        0.4187
     21 F          63.0454   80.4959    9.9110 F       1  UNL1       -0.1659
     22 F          63.4752   82.4924   10.4850 F       1  UNL1       -0.1659
     23 F          62.7159   79.9828   11.9428 F       1  UNL1       -0.1659
     24 C          65.2765   91.4559   13.0504 C.3     1  UNL1        0.0082
     25 C          65.8644   92.6981   12.4491 C.3     1  UNL1        0.0005
     26 C          65.9209   91.1523   13.7296 C.3     1  UNL1        0.0005
     27 N          60.7825   90.3005   10.4216 N.3     1  UNL1       -0.2975
     28 H          60.0687   90.4158   11.1410 H       1  UNL1        0.1232
     29 C          60.1658   88.7087    8.4630 C.3     1  UNL1        0.1591
     30 C          60.0102   87.3202    7.9173 C.3     1  UNL1        0.1729
     31 O          60.3157   86.1350    8.7843 O.3     1  UNL1       -0.3511
     32 C          60.7768   86.3382   10.1971 C.3     1  UNL1        0.1437
     33 C          60.9324   87.7267   10.7429 C.3     1  UNL1        0.0503
     34 C          60.6269   88.9119    9.8758 C.3     1  UNL1        0.0865
     35 C          59.2593   89.6936    6.2363 C.3     1  UNL1        0.1742
     36 O          59.8603   89.8940    7.5959 O.3     1  UNL1       -0.3496
@<TRIPOS>BOND
     1    35    36    1
     2    29    36    1
     3    29    30    1
     4    30    31    1
     5    31    32    1
     6    32    33    1
     7    33    34    1
     8    34    27    1
     9     1    27    1
    10     1     2    1
    11     2     3    1
    12     3     4    1
    13     4     6    1
    14     6     7    2
    15     6     8   am
    16     8     9    1
    17     9    10    1
    18    10    11    1
    19    11    14    1
    20    14    15   ar
    21    15    16   ar
    22    16    20    1
    23    20    21    1
    24    20    22    1
    25    20    23    1
    26    16    17   ar
    27    17    18   ar
    28    18    19   ar
    29    11    12    1
    30    12    13    1
    31     4    24    1
    32    24    25    1
    33    24    26    1
    34     4     5    1
    35    34    29    1
    36     5     1    1
    37    13     8    1
    38    19    14   ar
    39    27    28    1
@<TRIPOS>MOLECULE
*****
 36 39 0 0 0
SMALL
GASTEIGER

@<TRIPOS>ATOM
      1 C          64.4626   85.6247   14.4988 C.3     1  UNL1        0.0545
      2 C          64.0894   85.7792   15.9434 C.3     1  UNL1        0.0162
      3 C          63.7552   87.2215   16.1841 C.3     1  UNL1        0.0100
      4 C          63.9218   87.9585   14.8883 C.3     1  UNL1        0.0704
      5 C          64.3590   86.9715   13.8467 C.3     1  UNL1        0.0243
      6 C          64.0005   88.9447   13.7609 C.2     1  UNL1        0.2248
      7 O          64.9626   90.0932   13.8348 O.2     1  UNL1       -0.2749
      8 N          63.1171   88.7826   12.5595 N.am    1  UNL1       -0.2760
      9 C          63.1957   89.7688   11.4320 C.3     1  UNL1        0.1149
     10 C          62.3122   89.6066   10.2307 C.3     1  UNL1        0.1137
     11 N          61.3502   88.4582   10.1568 N.pl3   1  UNL1       -0.2897
     12 C          61.2715   87.4719   11.2842 C.3     1  UNL1        0.1137
     13 C          62.1550   87.6341   12.4856 C.3     1  UNL1        0.1149
     14 C          60.4667   88.2960    8.9554 C.ar    1  UNL1        0.1317
     15 C          60.2524   89.4496    8.0209 C.ar    1  UNL1        0.0382
     16 C          59.3690   89.2874    6.8195 C.ar    1  UNL1        0.0757
     17 C          58.6999   87.9717    6.5528 C.ar    1  UNL1        0.0246
     18 C          58.9142   86.8181    7.4873 C.ar    1  UNL1        0.1002
     19 N          59.7976   86.9803    8.6886 N.ar    1  UNL1       -0.2292
     20 C          59.1546   90.4409    5.8850 C.3     1  UNL1        0.4187
     21 F          58.9403   91.5944    4.9504 F       1  UNL1       -0.1659
     22 F          60.6211   90.4583    5.5701 F       1  UNL1       -0.1659
     23 F          57.6882   90.4235    6.1999 F       1  UNL1       -0.1659
     24 C          63.5011   89.1515   15.6941 C.3     1  UNL1        0.0082
     25 C          63.0863   88.9814   17.1256 C.3     1  UNL1        0.0005
     26 C          63.4207   90.1132   15.5009 C.3     1  UNL1        0.0005
     27 N          64.8681   84.3475   13.8247 N.3     1  UNL1       -0.2975
     28 H          65.2227   84.6010   12.9025 H       1  UNL1        0.1232
     29 C          63.8356   82.4947   12.3242 C.3     1  UNL1        0.1591
     30 C          62.8275   81.4038   12.1157 C.3     1  UNL1        0.1729
     31 O          61.8435   81.0749   13.1990 O.3     1  UNL1       -0.3511
     32 C          61.8677   81.8367   14.4909 C.3     1  UNL1        0.1437
     33 C          62.8759   82.9276   14.6994 C.3     1  UNL1        0.0503
     34 C          63.8599   83.2566   13.6161 C.3     1  UNL1        0.0865
     35 C          64.3329   83.3114    9.9085 C.3     1  UNL1        0.1742
     36 O          64.8196   82.8237   11.2409 O.3     1  UNL1       -0.3496
@<TRIPOS>BOND
     1    35    36    1
     2    29    36    1
     3    29    30    1
     4    30    31    1
     5    31    32    1
     6    32    33    1
     7    33    34    1
     8    34    27    1
     9     1    27    1
    10     1     2    1
    11     2     3    1
    12     3     4    1
    13     4     6    1
    14     6     7    2
    15     6     8   am
    16     8     9    1
    17     9    10    1
    18    10    11    1
    19    11    14    1
    20    14    15   ar
    21    15    16   ar
    22    16    20    1
    23    20    21    1
    24    20    22    1
    25    20    23    1
    26    16    17   ar
    27    17    18   ar
    28    18    19   ar
    29    11    12    1
    30    12    13    1
    31     4    24    1
    32    24    25    1
    33    24    26    1
    34     4     5    1
    35    34    29    1
    36     5     1    1
    37    13     8    1
    38    19    14   ar
    39    27    28    1
@<TRIPOS>MOLECULE
*****
 36 39 0 0 0
SMALL
GASTEIGER

@<TRIPOS>ATOM
      1 C          65.3348   92.0216   11.4018 C.3     1  UNL1        0.0545
      2 C          64.1277   92.1634   10.5227 C.3     1  UNL1        0.0162
      3 C          63.0249   91.3352   11.1124 C.3     1  UNL1        0.0100
      4 C          63.5504   90.6814   12.3559 C.3     1  UNL1        0.0704
      5 C          64.9780   91.1057   12.5348 C.3     1  UNL1        0.0243
      6 C          63.7878   89.9051   13.6172 C.2     1  UNL1        0.2248
      7 O          64.0960   90.6269   14.8955 O.2     1  UNL1       -0.2749
      8 N          63.7171   88.4068   13.6003 N.am    1  UNL1       -0.2760
      9 C          63.9546   87.6304   14.8615 C.3     1  UNL1        0.1149
     10 C          63.8839   86.1321   14.8445 C.3     1  UNL1        0.1137
     11 N          63.5757   85.4103   13.5662 N.pl3   1  UNL1       -0.2897
     12 C          63.3382   86.1867   12.3050 C.3     1  UNL1        0.1137
     13 C          63.4089   87.6850   12.3220 C.3     1  UNL1        0.1149
     14 C          63.5049   83.9121   13.5492 C.ar    1  UNL1        0.1317
     15 C          63.3396   83.1838   12.2483 C.ar    1  UNL1        0.0382
     16 C          63.2689   81.6856   12.2312 C.ar    1  UNL1        0.0757
     17 C          63.3635   80.9157   13.5151 C.ar    1  UNL1        0.0246
     18 C          63.5288   81.6439   14.8159 C.ar    1  UNL1        0.1002
     19 N          63.5995   83.1421   14.8330 N.ar    1  UNL1       -0.2292
     20 C          63.1036   80.9573   10.9304 C.3     1  UNL1        0.4187
     21 F          62.9383   80.2290    9.6295 F       1  UNL1       -0.1659
     22 F          62.6589   79.7322   11.6728 F       1  UNL1       -0.1659
     23 F          63.5483   82.1825   10.1880 F       1  UNL1       -0.1659
     24 C          62.1725   90.0949   12.4407 C.3     1  UNL1        0.0082
     25 C          61.4633   89.6622   11.1918 C.3     1  UNL1        0.0005
     26 C          61.5553   89.9036   13.1832 C.3     1  UNL1        0.0005
     27 N          66.6651   92.6801   11.1858 N.3     1  UNL1       -0.2975
     28 H          67.1329   92.7030   12.0919 H       1  UNL1        0.1232
     29 C          67.3372   94.3098    9.2773 C.3     1  UNL1        0.1591
     30 C          67.4038   95.7009    8.7203 C.3     1  UNL1        0.1729
     31 O          66.8649   96.8535    9.5147 O.3     1  UNL1       -0.3511
     32 C          66.2595   96.6150   10.8662 C.3     1  UNL1        0.1437
     33 C          66.1929   95.2238   11.4232 C.3     1  UNL1        0.0503
     34 C          66.7317   94.0712   10.6287 C.3     1  UNL1        0.0865
     35 C          69.0557   92.3825    8.9908 C.3     1  UNL1        0.1742
     36 O          67.8760   93.1572    8.4828 O.3     1  UNL1       -0.3496
@<TRIPOS>BOND
     1    35    36    1
     2    29    36    1
     3    29    30    1
     4    30    31    1
     5    31    32    1
     6    32    33    1
     7    33    34    1
     8    34    27    1
     9     1    27    1
    10     1     2    1
    11     2     3    1
    12     3     4    1
    13     4     6    1
    14     6     7    2
    15     6     8   am
    16     8     9    1
    17     9    10    1
    18    10    11    1
    19    11    14    1
    20    14    15   ar
    21    15    16   ar
    22    16    20    1
    23    20    21    1
    24    20    22    1
    25    20    23    1
    26    16    17   ar
    27    17    18   ar
    28    18    19   ar
    29    11    12    1
    30    12    13    1
    31     4    24    1
    32    24    25    1
    33    24    26    1
    34     4     5    1
    35    34    29    1
    36     5     1    1
    37    13     8    1
    38    19    14   ar
    39    27    28    1
@<TRIPOS>MOLECULE
*****
 36 39 0 0 0
SMALL
GASTEIGER

@<TRIPOS>ATOM
      1 C          65.4210   91.9298   12.0249 C.3     1  UNL1        0.0545
      2 C          64.2486   92.1184   11.1085 C.3     1  UNL1        0.0162
      3 C          63.1246   91.2618   11.6115 C.3     1  UNL1        0.0100
      4 C          63.6024   90.5438   12.8387 C.3     1  UNL1        0.0704
      5 C          65.0217   90.9566   13.0942 C.3     1  UNL1        0.0243
      6 C          63.7919   89.7028   14.0662 C.2     1  UNL1        0.2248
      7 O          64.0375   90.3573   15.3933 O.2     1  UNL1       -0.2749
      8 N          63.7357   88.2071   13.9666 N.am    1  UNL1       -0.2760
      9 C          63.9251   87.3659   15.1940 C.3     1  UNL1        0.1149
     10 C          63.8689   85.8703   15.0943 C.3     1  UNL1        0.1137
     11 N          63.6233   85.2158   13.7672 N.pl3   1  UNL1       -0.2897
     12 C          63.4338   86.0570   12.5398 C.3     1  UNL1        0.1137
     13 C          63.4900   87.5526   12.6395 C.3     1  UNL1        0.1149
     14 C          63.5671   83.7202   13.6675 C.ar    1  UNL1        0.1317
     15 C          63.3470   83.0651   12.3361 C.ar    1  UNL1        0.0382
     16 C          63.2908   81.5694   12.2364 C.ar    1  UNL1        0.0757
     17 C          63.4546   80.7290   13.4679 C.ar    1  UNL1        0.0246
     18 C          63.6746   81.3841   14.7992 C.ar    1  UNL1        0.1002
     19 N          63.7308   82.8797   14.8989 N.ar    1  UNL1       -0.2292
     20 C          63.0708   80.9143   10.9051 C.3     1  UNL1        0.4187
     21 F          62.8508   80.2591    9.5738 F       1  UNL1       -0.1659
     22 F          62.6684   79.6452   11.5961 F       1  UNL1       -0.1659
     23 F          63.4732   82.1833   10.2140 F       1  UNL1       -0.1659
     24 C          62.2228   89.9552   12.8399 C.3     1  UNL1        0.0082
     25 C          61.5556   89.6051   11.5428 C.3     1  UNL1        0.0005
     26 C          61.5816   89.7172   13.5476 C.3     1  UNL1        0.0005
     27 N          66.7581   92.5972   11.8947 N.3     1  UNL1       -0.2975
     28 H          66.7081   93.4636   12.4306 H       1  UNL1        0.1232
     29 C          66.8987   94.2582    9.9020 C.3     1  UNL1        0.1591
     30 C          67.4286   94.6179    8.5456 C.3     1  UNL1        0.1729
     31 O          68.3476   93.6761    7.8254 O.3     1  UNL1       -0.3511
     32 C          68.7368   92.3748    8.4617 C.3     1  UNL1        0.1437
     33 C          68.2069   92.0151    9.8181 C.3     1  UNL1        0.0503
     34 C          67.2879   92.9569   10.5383 C.3     1  UNL1        0.0865
     35 C          66.4159   96.6080   10.8995 C.3     1  UNL1        0.1742
     36 O          65.9797   95.2000   10.6221 O.3     1  UNL1       -0.3496
@<TRIPOS>BOND
     1    35    36    1
     2    29    36    1
     3    29    30    1
     4    30    31    1
     5    31    32    1
     6    32    33    1
     7    33    34    1
     8    34    27    1
     9     1    27    1
    10     1     2    1
    11     2     3    1
    12     3     4    1
    13     4     6    1
    14     6     7    2
    15     6     8   am
    16     8     9    1
    17     9    10    1
    18    10    11    1
    19    11    14    1
    20    14    15   ar
    21    15    16   ar
    22    16    20    1
    23    20    21    1
    24    20    22    1
    25    20    23    1
    26    16    17   ar
    27    17    18   ar
    28    18    19   ar
    29    11    12    1
    30    12    13    1
    31     4    24    1
    32    24    25    1
    33    24    26    1
    34     4     5    1
    35    34    29    1
    36     5     1    1
    37    13     8    1
    38    19    14   ar
    39    27    28    1
@<TRIPOS>MOLECULE
*****
 36 39 0 0 0
SMALL
GASTEIGER

@<TRIPOS>ATOM
      1 C          64.3434   89.7739   15.2207 C.3     1  UNL1        0.0545
      2 C          63.6159   89.8533   16.5301 C.3     1  UNL1        0.0162
      3 C          63.1784   88.4675   16.9020 C.3     1  UNL1        0.0100
      4 C          63.6355   87.5318   15.8225 C.3     1  UNL1        0.0704
      5 C          64.3555   88.3392   14.7834 C.3     1  UNL1        0.0243
      6 C          63.9560   86.3768   14.9208 C.2     1  UNL1        0.2248
      7 O          64.9137   85.3148   15.3737 O.2     1  UNL1       -0.2749
      8 N          63.3189   86.2836   13.5659 N.am    1  UNL1       -0.2760
      9 C          63.6394   85.1286   12.6641 C.3     1  UNL1        0.1149
     10 C          63.0023   85.0356   11.3094 C.3     1  UNL1        0.1137
     11 N          62.0446   86.0975   10.8564 N.pl3   1  UNL1       -0.2897
     12 C          61.7241   87.2525   11.7582 C.3     1  UNL1        0.1137
     13 C          62.3612   87.3455   13.1130 C.3     1  UNL1        0.1149
     14 C          61.4074   86.0044    9.5016 C.ar    1  UNL1        0.1317
     15 C          62.0652   85.2039    8.4169 C.ar    1  UNL1        0.0382
     16 C          61.4281   85.1108    7.0622 C.ar    1  UNL1        0.0757
     17 C          60.1333   85.8182    6.7921 C.ar    1  UNL1        0.0246
     18 C          59.4755   86.6188    7.8768 C.ar    1  UNL1        0.1002
     19 N          60.1127   86.7118    9.2315 N.ar    1  UNL1       -0.2292
     20 C          62.0857   84.3103    5.9775 C.3     1  UNL1        0.4187
     21 F          62.7434   83.5098    4.8927 F       1  UNL1       -0.1659
     22 F          63.3869   85.0029    6.2552 F       1  UNL1       -0.1659
     23 F          60.7846   83.6176    5.6997 F       1  UNL1       -0.1659
     24 C          62.9825   86.4830   16.6730 C.3     1  UNL1        0.0082
     25 C          62.8352   86.6996   18.1500 C.3     1  UNL1        0.0005
     26 C          62.5871   85.6009   16.4876 C.3     1  UNL1        0.0005
     27 N          64.9520   90.9269   14.4789 N.3     1  UNL1       -0.2975
     28 H          64.7687   91.7633   15.0332 H       1  UNL1        0.1232
     29 C          65.3451   92.1310   12.2105 C.3     1  UNL1        0.1591
     30 C          64.9072   92.4359   10.8087 C.3     1  UNL1        0.1729
     31 O          63.6383   91.8416   10.2733 O.3     1  UNL1       -0.3511
     32 C          62.8073   90.9424   11.1398 C.3     1  UNL1        0.1437
     33 C          63.2452   90.6375   12.5416 C.3     1  UNL1        0.0503
     34 C          64.5141   91.2318   13.0770 C.3     1  UNL1        0.0865
     35 C          66.5567   93.7932   13.7977 C.3     1  UNL1        0.1742
     36 O          66.6141   92.7253   12.7459 O.3     1  UNL1       -0.3496
@<TRIPOS>BOND
     1    35    36    1
     2    29    36    1
     3    29    30    1
     4    30    31    1
     5    31    32    1
     6    32    33    1
     7    33    34    1
     8    34    27    1
     9     1    27    1
    10     1     2    1
    11     2     3    1
    12     3     4    1
    13     4     6    1
    14     6     7    2
    15     6     8   am
    16     8     9    1
    17     9    10    1
    18    10    11    1
    19    11    14    1
    20    14    15   ar
    21    15    16   ar
    22    16    20    1
    23    20    21    1
    24    20    22    1
    25    20    23    1
    26    16    17   ar
    27    17    18   ar
    28    18    19   ar
    29    11    12    1
    30    12    13    1
    31     4    24    1
    32    24    25    1
    33    24    26    1
    34     4     5    1
    35    34    29    1
    36     5     1    1
    37    13     8    1
    38    19    14   ar
    39    27    28    1
