@<TRIPOS>MOLECULE
*****
 32 36 0 0 0
SMALL
GASTEIGER

@<TRIPOS>ATOM
      1 C          63.7316   89.4528   14.9921 C.ar    1  UNL1        0.0846
      2 C          63.0589   89.3289   16.3270 C.ar    1  UNL1        0.0370
      3 C          63.1751   87.9017   16.7739 C.ar    1  UNL1        0.0967
      4 N          63.9197   87.1436   15.7153 N.ar    1  UNL1       -0.2452
      5 N          64.2637   88.1022   14.6140 N.ar    1  UNL1       -0.1730
      6 C          63.8514   90.7070   14.1782 C.3     1  UNL1        0.0757
      7 N          68.5854   91.9366   15.9326 N.pl3   1  UNL1       -0.3441
      8 C          67.5639   91.9466   14.8341 C.ar    1  UNL1        0.1035
      9 C          66.2184   91.3218   15.0553 C.ar    1  UNL1        0.0297
     10 C          65.1970   91.3319   13.9568 C.ar    1  UNL1        0.0090
     11 C          65.5212   91.9668   12.6371 C.ar    1  UNL1        0.1366
     12 N          64.7226   92.1279   11.3776 N.ar    1  UNL1       -0.1258
     13 N          65.5746   92.8523   10.3780 N.ar    1  UNL1       -0.0406
     14 N          66.8998   93.1389   11.0196 N.ar    1  UNL1       -0.1095
     15 C          66.8668   92.5916   12.4158 C.ar    1  UNL1        0.1838
     16 N          67.8882   92.5815   13.5143 N.ar    1  UNL1       -0.3249
     17 H          68.3727   91.5198   16.7988 H       1  UNL1        0.1437
     18 H          69.4686   92.3467   15.7873 H       1  UNL1        0.1437
     19 H          68.7713   92.9916   13.3691 H       1  UNL1        0.1686
     20 C          64.2606   85.6832   15.7514 C.3     1  UNL1        0.1538
     21 C          63.7720   84.7719   14.6649 C.ar    1  UNL1        0.0021
     22 C          63.6598   83.2974   14.9167 C.ar    1  UNL1       -0.0023
     23 C          63.1712   82.3860   13.8301 C.ar    1  UNL1       -0.0003
     24 C          62.7947   82.9491   12.4918 C.ar    1  UNL1       -0.0000
     25 C          62.9068   84.4236   12.2400 C.ar    1  UNL1       -0.0003
     26 C          63.3954   85.3349   13.3265 C.ar    1  UNL1       -0.0023
     27 C          62.5302   84.9866   10.9016 C.ar    1  UNL1       -0.0000
     28 C          63.2877   84.5743    9.6745 C.ar    1  UNL1       -0.0000
     29 C          62.9112   85.1374    8.3361 C.ar    1  UNL1       -0.0000
     30 C          61.7771   86.1128    8.2250 C.ar    1  UNL1        0.0000
     31 C          61.0195   86.5251    9.4522 C.ar    1  UNL1       -0.0000
     32 C          61.3961   85.9620   10.7906 C.ar    1  UNL1       -0.0000
@<TRIPOS>BOND
     1     7     8    1
     2     8     9   ar
     3     9    10   ar
     4    10     6    1
     5     6     1    1
     6     1     2   ar
     7     2     3   ar
     8     3     4   ar
     9     4    20    1
    10    20    21    1
    11    21    22   ar
    12    22    23   ar
    13    23    24   ar
    14    24    25   ar
    15    25    27    1
    16    27    28   ar
    17    28    29   ar
    18    29    30   ar
    19    30    31   ar
    20    31    32   ar
    21    25    26   ar
    22     4     5   ar
    23    10    11   ar
    24    11    12   ar
    25    12    13   ar
    26    13    14   ar
    27    14    15   ar
    28    15    16   ar
    29    16     8   ar
    30     5     1   ar
    31    15    11    1
    32    26    21   ar
    33    32    27   ar
    34     7    17    1
    35     7    18    1
    36    16    19    1
@<TRIPOS>MOLECULE
*****
 32 36 0 0 0
SMALL
GASTEIGER

@<TRIPOS>ATOM
      1 C          62.1881   86.2731   11.1519 C.ar    1  UNL1        0.0846
      2 C          60.8864   86.5726   10.4693 C.ar    1  UNL1        0.0370
      3 C          60.6022   88.0361   10.6349 C.ar    1  UNL1        0.0967
      4 N          61.7281   88.6411   11.4198 N.ar    1  UNL1       -0.2452
      5 N          62.7083   87.5515   11.7393 N.ar    1  UNL1       -0.1730
      6 C          62.8529   84.9310   11.2328 C.3     1  UNL1        0.0757
      7 N          64.3008   85.4663   16.1944 N.pl3   1  UNL1       -0.3441
      8 C          63.8797   84.5911   15.0512 C.ar    1  UNL1        0.1035
      9 C          63.5768   85.1986   13.7137 C.ar    1  UNL1        0.0297
     10 C          63.1557   84.3234   12.5705 C.ar    1  UNL1        0.0090
     11 C          63.0375   82.8408   12.7650 C.ar    1  UNL1        0.1366
     12 N          62.6478   81.7339   11.8307 N.ar    1  UNL1       -0.1258
     13 N          62.7098   80.4423   12.5910 N.ar    1  UNL1       -0.0406
     14 N          63.1378   80.7510   13.9951 N.ar    1  UNL1       -0.1095
     15 C          63.3404   82.2334   14.1026 C.ar    1  UNL1        0.1838
     16 N          63.7614   83.1085   15.2458 N.ar    1  UNL1       -0.3249
     17 H          64.3784   86.4394   16.0668 H       1  UNL1        0.1437
     18 H          64.4995   85.0676   17.0724 H       1  UNL1        0.1437
     19 H          63.9602   82.7098   16.1237 H       1  UNL1        0.1686
     20 C          61.8523   90.0826   11.8158 C.3     1  UNL1        0.1538
     21 C          63.1678   90.6171   12.2989 C.ar    1  UNL1        0.0021
     22 C          63.6493   90.2878   13.6809 C.ar    1  UNL1       -0.0023
     23 C          64.9649   90.8223   14.1640 C.ar    1  UNL1       -0.0003
     24 C          65.7991   91.6861   13.2652 C.ar    1  UNL1       -0.0000
     25 C          65.3177   92.0154   11.8832 C.ar    1  UNL1       -0.0003
     26 C          64.0021   91.4809   11.4001 C.ar    1  UNL1       -0.0023
     27 C          66.1519   92.8793   10.9844 C.ar    1  UNL1       -0.0000
     28 C          67.3224   92.2911   10.2538 C.ar    1  UNL1       -0.0000
     29 C          68.1567   93.1550    9.3550 C.ar    1  UNL1       -0.0000
     30 C          67.8203   94.6071    9.1868 C.ar    1  UNL1        0.0000
     31 C          66.6498   95.1953    9.9175 C.ar    1  UNL1       -0.0000
     32 C          65.8156   94.3314   10.8163 C.ar    1  UNL1       -0.0000
@<TRIPOS>BOND
     1     7     8    1
     2     8     9   ar
     3     9    10   ar
     4    10     6    1
     5     6     1    1
     6     1     2   ar
     7     2     3   ar
     8     3     4   ar
     9     4    20    1
    10    20    21    1
    11    21    22   ar
    12    22    23   ar
    13    23    24   ar
    14    24    25   ar
    15    25    27    1
    16    27    28   ar
    17    28    29   ar
    18    29    30   ar
    19    30    31   ar
    20    31    32   ar
    21    25    26   ar
    22     4     5   ar
    23    10    11   ar
    24    11    12   ar
    25    12    13   ar
    26    13    14   ar
    27    14    15   ar
    28    15    16   ar
    29    16     8   ar
    30     5     1   ar
    31    15    11    1
    32    26    21   ar
    33    32    27   ar
    34     7    17    1
    35     7    18    1
    36    16    19    1
@<TRIPOS>MOLECULE
*****
 32 36 0 0 0
SMALL
GASTEIGER

@<TRIPOS>ATOM
      1 C          62.1676   86.0421   11.0497 C.ar    1  UNL1        0.0846
      2 C          61.0451   86.4179   10.1284 C.ar    1  UNL1        0.0370
      3 C          60.7270   87.8665   10.3522 C.ar    1  UNL1        0.0967
      4 N          61.6528   88.3862   11.4118 N.ar    1  UNL1       -0.2452
      5 N          62.5432   87.2586   11.8429 N.ar    1  UNL1       -0.1730
      6 C          62.8030   84.6878   11.1588 C.3     1  UNL1        0.0757
      7 N          64.3716   85.3527   16.0677 N.pl3   1  UNL1       -0.3441
      8 C          63.9101   84.4497   14.9624 C.ar    1  UNL1        0.1035
      9 C          63.5873   85.0202   13.6133 C.ar    1  UNL1        0.0297
     10 C          63.1257   84.1172   12.5080 C.ar    1  UNL1        0.0090
     11 C          62.9870   82.6437   12.7519 C.ar    1  UNL1        0.1366
     12 N          62.5577   81.5151   11.8620 N.ar    1  UNL1       -0.1258
     13 N          62.6151   80.2471   12.6613 N.ar    1  UNL1       -0.0406
     14 N          63.0800   80.5920   14.0451 N.ar    1  UNL1       -0.1095
     15 C          63.3098   82.0732   14.1011 C.ar    1  UNL1        0.1838
     16 N          63.7714   82.9762   15.2064 N.ar    1  UNL1       -0.3249
     17 H          64.4627   86.3198   15.9077 H       1  UNL1        0.1437
     18 H          64.5835   84.9782   16.9532 H       1  UNL1        0.1437
     19 H          63.9832   82.6017   16.0919 H       1  UNL1        0.1686
     20 C          61.6831   89.7874   11.9465 C.3     1  UNL1        0.1538
     21 C          62.8987   90.6419   11.7424 C.ar    1  UNL1        0.0021
     22 C          63.1752   91.2437   10.3964 C.ar    1  UNL1       -0.0023
     23 C          64.3910   92.0983   10.1923 C.ar    1  UNL1       -0.0003
     24 C          65.3303   92.3511   11.3342 C.ar    1  UNL1       -0.0000
     25 C          65.0538   91.7494   12.6801 C.ar    1  UNL1       -0.0003
     26 C          63.8381   90.8949   12.8841 C.ar    1  UNL1       -0.0023
     27 C          65.9931   92.0023   13.8219 C.ar    1  UNL1       -0.0000
     28 C          65.4507   92.2603   15.1963 C.ar    1  UNL1       -0.0000
     29 C          66.3901   92.5132   16.3382 C.ar    1  UNL1       -0.0000
     30 C          67.8719   92.5081   16.1054 C.ar    1  UNL1        0.0000
     31 C          68.4143   92.2501   14.7309 C.ar    1  UNL1       -0.0000
     32 C          67.4750   91.9972   13.5892 C.ar    1  UNL1       -0.0000
@<TRIPOS>BOND
     1     7     8    1
     2     8     9   ar
     3     9    10   ar
     4    10     6    1
     5     6     1    1
     6     1     2   ar
     7     2     3   ar
     8     3     4   ar
     9     4    20    1
    10    20    21    1
    11    21    22   ar
    12    22    23   ar
    13    23    24   ar
    14    24    25   ar
    15    25    27    1
    16    27    28   ar
    17    28    29   ar
    18    29    30   ar
    19    30    31   ar
    20    31    32   ar
    21    25    26   ar
    22     4     5   ar
    23    10    11   ar
    24    11    12   ar
    25    12    13   ar
    26    13    14   ar
    27    14    15   ar
    28    15    16   ar
    29    16     8   ar
    30     5     1   ar
    31    15    11    1
    32    26    21   ar
    33    32    27   ar
    34     7    17    1
    35     7    18    1
    36    16    19    1
@<TRIPOS>MOLECULE
*****
 32 36 0 0 0
SMALL
GASTEIGER

@<TRIPOS>ATOM
      1 C          62.3073   86.1654   11.1019 C.ar    1  UNL1        0.0846
      2 C          61.0007   86.3648   10.3928 C.ar    1  UNL1        0.0370
      3 C          60.6511   87.8216   10.4661 C.ar    1  UNL1        0.0967
      4 N          61.7417   88.5226   11.2204 N.ar    1  UNL1       -0.2452
      5 N          62.7654   87.4990   11.6134 N.ar    1  UNL1       -0.1730
      6 C          63.0293   84.8614   11.2700 C.3     1  UNL1        0.0757
      7 N          61.7910   80.4094   13.6464 N.pl3   1  UNL1       -0.3441
      8 C          62.2377   81.8396   13.7179 C.ar    1  UNL1        0.1035
      9 C          62.4101   82.6354   12.4583 C.ar    1  UNL1        0.0297
     10 C          62.8568   84.0656   12.5298 C.ar    1  UNL1        0.0090
     11 C          63.1310   84.6999   13.8611 C.ar    1  UNL1        0.1366
     12 N          63.5802   86.0794   14.2421 N.ar    1  UNL1       -0.1258
     13 N          63.6853   86.1361   15.7374 N.ar    1  UNL1       -0.0406
     14 N          63.3011   84.7917   16.2805 N.ar    1  UNL1       -0.1095
     15 C          62.9586   83.9040   15.1208 C.ar    1  UNL1        0.1838
     16 N          62.5119   82.4739   15.0492 N.ar    1  UNL1       -0.3249
     17 H          61.6110   79.9930   12.7726 H       1  UNL1        0.1437
     18 H          61.6778   79.8871   14.4732 H       1  UNL1        0.1437
     19 H          62.3987   81.9516   15.8760 H       1  UNL1        0.1686
     20 C          61.7988   89.9898   11.5279 C.3     1  UNL1        0.1538
     21 C          63.0528   90.5898   12.0910 C.ar    1  UNL1        0.0021
     22 C          63.4310   90.3333   13.5198 C.ar    1  UNL1       -0.0023
     23 C          64.6851   90.9334   14.0830 C.ar    1  UNL1       -0.0003
     24 C          65.5610   91.7899   13.2175 C.ar    1  UNL1       -0.0000
     25 C          65.1828   92.0464   11.7888 C.ar    1  UNL1       -0.0003
     26 C          63.9288   91.4463   11.2256 C.ar    1  UNL1       -0.0023
     27 C          66.0588   92.9030   10.9233 C.ar    1  UNL1       -0.0000
     28 C          65.7416   94.3577   10.7422 C.ar    1  UNL1       -0.0000
     29 C          66.6176   95.2143    9.8767 C.ar    1  UNL1       -0.0000
     30 C          67.8108   94.6159    9.1924 C.ar    1  UNL1        0.0000
     31 C          68.1280   93.1611    9.3736 C.ar    1  UNL1       -0.0000
     32 C          67.2520   92.3046   10.2391 C.ar    1  UNL1       -0.0000
@<TRIPOS>BOND
     1     7     8    1
     2     8     9   ar
     3     9    10   ar
     4    10     6    1
     5     6     1    1
     6     1     2   ar
     7     2     3   ar
     8     3     4   ar
     9     4    20    1
    10    20    21    1
    11    21    22   ar
    12    22    23   ar
    13    23    24   ar
    14    24    25   ar
    15    25    27    1
    16    27    28   ar
    17    28    29   ar
    18    29    30   ar
    19    30    31   ar
    20    31    32   ar
    21    25    26   ar
    22     4     5   ar
    23    10    11   ar
    24    11    12   ar
    25    12    13   ar
    26    13    14   ar
    27    14    15   ar
    28    15    16   ar
    29    16     8   ar
    30     5     1   ar
    31    15    11    1
    32    26    21   ar
    33    32    27   ar
    34     7    17    1
    35     7    18    1
    36    16    19    1
@<TRIPOS>MOLECULE
*****
 32 36 0 0 0
SMALL
GASTEIGER

@<TRIPOS>ATOM
      1 C          62.3356   85.9155   11.1258 C.ar    1  UNL1        0.0846
      2 C          61.1550   86.1975   10.2444 C.ar    1  UNL1        0.0370
      3 C          60.7600   87.6307   10.4433 C.ar    1  UNL1        0.0967
      4 N          61.6964   88.2346   11.4475 N.ar    1  UNL1       -0.2452
      5 N          62.6702   87.1745   11.8693 N.ar    1  UNL1       -0.1730
      6 C          63.0553   84.6047   11.2430 C.3     1  UNL1        0.0757
      7 N          61.9510   79.9563   13.2860 N.pl3   1  UNL1       -0.3441
      8 C          62.2823   81.4083   13.4647 C.ar    1  UNL1        0.1035
      9 C          62.5031   82.2805   12.2646 C.ar    1  UNL1        0.0297
     10 C          62.8344   83.7325   12.4433 C.ar    1  UNL1        0.0090
     11 C          62.9448   84.3123   13.8223 C.ar    1  UNL1        0.1366
     12 N          63.2555   85.6975   14.3067 N.ar    1  UNL1       -0.1258
     13 N          63.2267   85.6814   15.8064 N.ar    1  UNL1       -0.0406
     14 N          62.8982   84.2862   16.2487 N.ar    1  UNL1       -0.1095
     15 C          62.7239   83.4401   15.0225 C.ar    1  UNL1        0.1838
     16 N          62.3927   81.9881   14.8437 N.ar    1  UNL1       -0.3249
     17 H          61.8785   79.5757   12.3809 H       1  UNL1        0.1437
     18 H          61.8060   79.3838   14.0737 H       1  UNL1        0.1437
     19 H          62.2477   81.4157   15.6314 H       1  UNL1        0.1686
     20 C          61.6646   89.6501   11.9430 C.3     1  UNL1        0.1538
     21 C          62.8504   90.5446   11.7342 C.ar    1  UNL1        0.0021
     22 C          63.0883   91.1741   10.3936 C.ar    1  UNL1       -0.0023
     23 C          64.2741   92.0687   10.1848 C.ar    1  UNL1       -0.0003
     24 C          65.2221   92.3337   11.3166 C.ar    1  UNL1       -0.0000
     25 C          64.9842   91.7043   12.6572 C.ar    1  UNL1       -0.0003
     26 C          63.7985   90.8098   12.8660 C.ar    1  UNL1       -0.0023
     27 C          65.9323   91.9694   13.7891 C.ar    1  UNL1       -0.0000
     28 C          67.4110   91.9938   13.5387 C.ar    1  UNL1       -0.0000
     29 C          68.3590   92.2589   14.6706 C.ar    1  UNL1       -0.0000
     30 C          67.8282   92.4996   16.0527 C.ar    1  UNL1        0.0000
     31 C          66.3495   92.4752   16.3030 C.ar    1  UNL1       -0.0000
     32 C          65.4015   92.2101   15.1712 C.ar    1  UNL1       -0.0000
@<TRIPOS>BOND
     1     7     8    1
     2     8     9   ar
     3     9    10   ar
     4    10     6    1
     5     6     1    1
     6     1     2   ar
     7     2     3   ar
     8     3     4   ar
     9     4    20    1
    10    20    21    1
    11    21    22   ar
    12    22    23   ar
    13    23    24   ar
    14    24    25   ar
    15    25    27    1
    16    27    28   ar
    17    28    29   ar
    18    29    30   ar
    19    30    31   ar
    20    31    32   ar
    21    25    26   ar
    22     4     5   ar
    23    10    11   ar
    24    11    12   ar
    25    12    13   ar
    26    13    14   ar
    27    14    15   ar
    28    15    16   ar
    29    16     8   ar
    30     5     1   ar
    31    15    11    1
    32    26    21   ar
    33    32    27   ar
    34     7    17    1
    35     7    18    1
    36    16    19    1
@<TRIPOS>MOLECULE
*****
 32 36 0 0 0
SMALL
GASTEIGER

@<TRIPOS>ATOM
      1 C          62.9565   90.1370   12.1640 C.ar    1  UNL1        0.0846
      2 C          62.2198   90.9961   11.1795 C.ar    1  UNL1        0.0370
      3 C          61.4091   90.0962   10.2947 C.ar    1  UNL1        0.0967
      4 N          61.6446   88.6810   10.7324 N.ar    1  UNL1       -0.2452
      5 N          62.6010   88.7062   11.8877 N.ar    1  UNL1       -0.1730
      6 C          63.8856   90.6233   13.2365 C.3     1  UNL1        0.0757
      7 N          66.1276   93.8538    9.8396 N.pl3   1  UNL1       -0.3441
      8 C          65.9956   93.3255   11.2373 C.ar    1  UNL1        0.1035
      9 C          65.0066   92.2386   11.5380 C.ar    1  UNL1        0.0297
     10 C          64.8746   91.7103   12.9358 C.ar    1  UNL1        0.0090
     11 C          65.7317   92.2690   14.0327 C.ar    1  UNL1        0.1366
     12 N          65.8242   91.9499   15.4954 N.ar    1  UNL1       -0.1258
     13 N          66.8704   92.8396   16.0987 N.ar    1  UNL1       -0.0406
     14 N          67.4244   93.7086   15.0088 N.ar    1  UNL1       -0.1095
     15 C          66.7207   93.3560   13.7319 C.ar    1  UNL1        0.1838
     16 N          66.8526   93.8842   12.3343 N.ar    1  UNL1       -0.3249
     17 H          65.5651   93.4871    9.1196 H       1  UNL1        0.1437
     18 H          66.7767   94.5672    9.6422 H       1  UNL1        0.1437
     19 H          67.5017   94.5976   12.1369 H       1  UNL1        0.1686
     20 C          61.0314   87.4556   10.1220 C.3     1  UNL1        0.1538
     21 C          61.8504   86.2098    9.9573 C.ar    1  UNL1        0.0021
     22 C          62.6383   85.9910    8.6997 C.ar    1  UNL1       -0.0023
     23 C          63.4573   84.7451    8.5350 C.ar    1  UNL1       -0.0003
     24 C          63.4883   83.7180    9.6277 C.ar    1  UNL1       -0.0000
     25 C          62.7004   83.9368   10.8852 C.ar    1  UNL1       -0.0003
     26 C          61.8815   85.1826   11.0500 C.ar    1  UNL1       -0.0023
     27 C          62.7314   82.9097   11.9780 C.ar    1  UNL1       -0.0000
     28 C          62.7530   81.4497   11.6346 C.ar    1  UNL1       -0.0000
     29 C          62.7841   80.4226   12.7274 C.ar    1  UNL1       -0.0000
     30 C          62.7936   80.8555   14.1635 C.ar    1  UNL1        0.0000
     31 C          62.7720   82.3155   14.5068 C.ar    1  UNL1       -0.0000
     32 C          62.7410   83.3426   13.4141 C.ar    1  UNL1       -0.0000
@<TRIPOS>BOND
     1     7     8    1
     2     8     9   ar
     3     9    10   ar
     4    10     6    1
     5     6     1    1
     6     1     2   ar
     7     2     3   ar
     8     3     4   ar
     9     4    20    1
    10    20    21    1
    11    21    22   ar
    12    22    23   ar
    13    23    24   ar
    14    24    25   ar
    15    25    27    1
    16    27    28   ar
    17    28    29   ar
    18    29    30   ar
    19    30    31   ar
    20    31    32   ar
    21    25    26   ar
    22     4     5   ar
    23    10    11   ar
    24    11    12   ar
    25    12    13   ar
    26    13    14   ar
    27    14    15   ar
    28    15    16   ar
    29    16     8   ar
    30     5     1   ar
    31    15    11    1
    32    26    21   ar
    33    32    27   ar
    34     7    17    1
    35     7    18    1
    36    16    19    1
@<TRIPOS>MOLECULE
*****
 32 36 0 0 0
SMALL
GASTEIGER

@<TRIPOS>ATOM
      1 C          63.8935   86.8454   15.5253 C.ar    1  UNL1        0.0846
      2 C          63.1769   87.3741   16.7323 C.ar    1  UNL1        0.0370
      3 C          63.1245   88.8691   16.6222 C.ar    1  UNL1        0.0967
      4 N          63.8088   89.2644   15.3473 N.ar    1  UNL1       -0.2452
      5 N          64.2841   88.0136   14.6693 N.ar    1  UNL1       -0.1730
      6 C          64.1709   85.4018   15.2266 C.3     1  UNL1        0.0757
      7 N          62.2407   85.8722   10.4252 N.pl3   1  UNL1       -0.3441
      8 C          62.6535   85.0092   11.5806 C.ar    1  UNL1        0.1035
      9 C          63.2058   85.6370   12.8259 C.ar    1  UNL1        0.0297
     10 C          63.6186   84.7740   13.9813 C.ar    1  UNL1        0.0090
     11 C          63.4791   83.2832   13.8913 C.ar    1  UNL1        0.1366
     12 N          63.7998   82.1848   14.8612 N.ar    1  UNL1       -0.1258
     13 N          63.4457   80.8781   14.2152 N.ar    1  UNL1       -0.0406
     14 N          62.9061   81.1690   12.8462 N.ar    1  UNL1       -0.1095
     15 C          62.9267   82.6554   12.6460 C.ar    1  UNL1        0.1838
     16 N          62.5140   83.5184   11.4907 N.ar    1  UNL1       -0.3249
     17 H          62.3322   86.8506   10.4842 H       1  UNL1        0.1437
     18 H          61.8782   85.4601    9.6079 H       1  UNL1        0.1437
     19 H          62.1514   83.1064   10.6733 H       1  UNL1        0.1686
     20 C          63.9866   90.6646   14.8394 C.3     1  UNL1        0.1538
     21 C          63.9111   90.9438   13.3676 C.ar    1  UNL1        0.0021
     22 C          62.8102   90.3417   12.5455 C.ar    1  UNL1       -0.0023
     23 C          62.7347   90.6210   11.0736 C.ar    1  UNL1       -0.0003
     24 C          63.7599   91.5022   10.4239 C.ar    1  UNL1       -0.0000
     25 C          64.8607   92.1043   11.2459 C.ar    1  UNL1       -0.0003
     26 C          64.9362   91.8251   12.7177 C.ar    1  UNL1       -0.0023
     27 C          65.8859   92.9856   10.5961 C.ar    1  UNL1       -0.0000
     28 C          67.1286   92.3842   10.0098 C.ar    1  UNL1       -0.0000
     29 C          68.1539   93.2655    9.3599 C.ar    1  UNL1       -0.0000
     30 C          67.9363   94.7482    9.2964 C.ar    1  UNL1        0.0000
     31 C          66.6935   95.3497    9.8828 C.ar    1  UNL1       -0.0000
     32 C          65.6683   94.4683   10.5326 C.ar    1  UNL1       -0.0000
@<TRIPOS>BOND
     1     7     8    1
     2     8     9   ar
     3     9    10   ar
     4    10     6    1
     5     6     1    1
     6     1     2   ar
     7     2     3   ar
     8     3     4   ar
     9     4    20    1
    10    20    21    1
    11    21    22   ar
    12    22    23   ar
    13    23    24   ar
    14    24    25   ar
    15    25    27    1
    16    27    28   ar
    17    28    29   ar
    18    29    30   ar
    19    30    31   ar
    20    31    32   ar
    21    25    26   ar
    22     4     5   ar
    23    10    11   ar
    24    11    12   ar
    25    12    13   ar
    26    13    14   ar
    27    14    15   ar
    28    15    16   ar
    29    16     8   ar
    30     5     1   ar
    31    15    11    1
    32    26    21   ar
    33    32    27   ar
    34     7    17    1
    35     7    18    1
    36    16    19    1
@<TRIPOS>MOLECULE
*****
 32 36 0 0 0
SMALL
GASTEIGER

@<TRIPOS>ATOM
      1 C          62.0962   90.4769   10.5414 C.ar    1  UNL1        0.0846
      2 C          60.6061   90.6419   10.5903 C.ar    1  UNL1        0.0370
      3 C          59.9844   89.4219    9.9779 C.ar    1  UNL1        0.0967
      4 N          61.0902   88.5029    9.5506 N.ar    1  UNL1       -0.2452
      5 N          62.3954   89.1550    9.8989 N.ar    1  UNL1       -0.1730
      6 C          63.1093   91.4611   11.0465 C.3     1  UNL1        0.0757
      7 N          63.9801   88.4709   15.2059 N.pl3   1  UNL1       -0.3441
      8 C          64.3357   89.6599   14.3633 C.ar    1  UNL1        0.1035
      9 C          63.5448   89.9660   13.1262 C.ar    1  UNL1        0.0297
     10 C          63.9003   91.1551   12.2837 C.ar    1  UNL1        0.0090
     11 C          65.0469   92.0380   12.6784 C.ar    1  UNL1        0.1366
     12 N          65.6273   93.2702   12.0502 N.ar    1  UNL1       -0.1258
     13 N          66.7770   93.7257   12.8991 N.ar    1  UNL1       -0.0406
     14 N          66.9071   92.7749   14.0520 N.ar    1  UNL1       -0.1095
     15 C          65.8379   91.7318   13.9156 C.ar    1  UNL1        0.1838
     16 N          65.4823   90.5428   14.7581 N.ar    1  UNL1       -0.3249
     17 H          63.2276   87.8913   14.9469 H       1  UNL1        0.1437
     18 H          64.4993   88.2700   16.0179 H       1  UNL1        0.1437
     19 H          66.0014   90.3419   15.5701 H       1  UNL1        0.1686
     20 C          60.9207   87.1665    8.8908 C.3     1  UNL1        0.1538
     21 C          61.8247   86.0279    9.2597 C.ar    1  UNL1        0.0021
     22 C          62.6344   85.3396    8.2010 C.ar    1  UNL1       -0.0023
     23 C          63.5385   84.2009    8.5700 C.ar    1  UNL1       -0.0003
     24 C          63.6328   83.7505    9.9976 C.ar    1  UNL1       -0.0000
     25 C          62.8231   84.4387   11.0562 C.ar    1  UNL1       -0.0003
     26 C          61.9191   85.5773   10.6873 C.ar    1  UNL1       -0.0023
     27 C          62.9174   83.9881   12.4839 C.ar    1  UNL1       -0.0000
     28 C          63.4419   84.9236   13.5325 C.ar    1  UNL1       -0.0000
     29 C          63.5363   84.4730   14.9602 C.ar    1  UNL1       -0.0000
     30 C          63.1061   83.0869   15.3391 C.ar    1  UNL1        0.0000
     31 C          62.5816   82.1514   14.2905 C.ar    1  UNL1       -0.0000
     32 C          62.4873   82.6020   12.8629 C.ar    1  UNL1       -0.0000
@<TRIPOS>BOND
     1     7     8    1
     2     8     9   ar
     3     9    10   ar
     4    10     6    1
     5     6     1    1
     6     1     2   ar
     7     2     3   ar
     8     3     4   ar
     9     4    20    1
    10    20    21    1
    11    21    22   ar
    12    22    23   ar
    13    23    24   ar
    14    24    25   ar
    15    25    27    1
    16    27    28   ar
    17    28    29   ar
    18    29    30   ar
    19    30    31   ar
    20    31    32   ar
    21    25    26   ar
    22     4     5   ar
    23    10    11   ar
    24    11    12   ar
    25    12    13   ar
    26    13    14   ar
    27    14    15   ar
    28    15    16   ar
    29    16     8   ar
    30     5     1   ar
    31    15    11    1
    32    26    21   ar
    33    32    27   ar
    34     7    17    1
    35     7    18    1
    36    16    19    1
@<TRIPOS>MOLECULE
*****
 32 36 0 0 0
SMALL
GASTEIGER

@<TRIPOS>ATOM
      1 C          62.5098   90.5746   10.8459 C.ar    1  UNL1        0.0846
      2 C          61.0924   91.0002   11.0904 C.ar    1  UNL1        0.0370
      3 C          60.2010   89.8273   10.8083 C.ar    1  UNL1        0.0967
      4 N          61.0674   88.6768   10.3894 N.ar    1  UNL1       -0.2452
      5 N          62.4944   89.1387   10.4126 N.ar    1  UNL1       -0.1730
      6 C          63.7286   91.4340   11.0065 C.3     1  UNL1        0.0757
      7 N          67.6895   93.0984   13.9291 N.pl3   1  UNL1       -0.3441
      8 C          66.3892   92.3616   13.8013 C.ar    1  UNL1        0.1035
      9 C          65.7091   92.2662   12.4678 C.ar    1  UNL1        0.0297
     10 C          64.4087   91.5294   12.3401 C.ar    1  UNL1        0.0090
     11 C          63.7885   90.8881   13.5459 C.ar    1  UNL1        0.1366
     12 N          62.5238   90.1018   13.7258 N.ar    1  UNL1       -0.1258
     13 N          62.4224   89.7113   15.1705 N.ar    1  UNL1       -0.0406
     14 N          63.6243   90.2562   15.8835 N.ar    1  UNL1       -0.1095
     15 C          64.4687   90.9835   14.8794 C.ar    1  UNL1        0.1838
     16 N          65.7690   91.7203   15.0071 N.ar    1  UNL1       -0.3249
     17 H          68.0966   93.5194   13.1377 H       1  UNL1        0.1437
     18 H          68.1359   93.1611   14.8043 H       1  UNL1        0.1437
     19 H          66.2154   91.7829   15.8824 H       1  UNL1        0.1686
     20 C          60.5907   87.3051   10.0132 C.3     1  UNL1        0.1538
     21 C          61.5778   86.1888    9.8423 C.ar    1  UNL1        0.0021
     22 C          62.3256   86.0399    8.5504 C.ar    1  UNL1       -0.0023
     23 C          63.3127   84.9235    8.3796 C.ar    1  UNL1       -0.0003
     24 C          63.5520   83.9559    9.5004 C.ar    1  UNL1       -0.0000
     25 C          62.8042   84.1047   10.7922 C.ar    1  UNL1       -0.0003
     26 C          61.8172   85.2211   10.9631 C.ar    1  UNL1       -0.0023
     27 C          63.0436   83.1370   11.9131 C.ar    1  UNL1       -0.0000
     28 C          62.7648   81.6765   11.7155 C.ar    1  UNL1       -0.0000
     29 C          63.0042   80.7088   12.8364 C.ar    1  UNL1       -0.0000
     30 C          63.5224   81.2018   14.1549 C.ar    1  UNL1        0.0000
     31 C          63.8013   82.6623   14.3525 C.ar    1  UNL1       -0.0000
     32 C          63.5619   83.6299   13.2316 C.ar    1  UNL1       -0.0000
@<TRIPOS>BOND
     1     7     8    1
     2     8     9   ar
     3     9    10   ar
     4    10     6    1
     5     6     1    1
     6     1     2   ar
     7     2     3   ar
     8     3     4   ar
     9     4    20    1
    10    20    21    1
    11    21    22   ar
    12    22    23   ar
    13    23    24   ar
    14    24    25   ar
    15    25    27    1
    16    27    28   ar
    17    28    29   ar
    18    29    30   ar
    19    30    31   ar
    20    31    32   ar
    21    25    26   ar
    22     4     5   ar
    23    10    11   ar
    24    11    12   ar
    25    12    13   ar
    26    13    14   ar
    27    14    15   ar
    28    15    16   ar
    29    16     8   ar
    30     5     1   ar
    31    15    11    1
    32    26    21   ar
    33    32    27   ar
    34     7    17    1
    35     7    18    1
    36    16    19    1
