@<TRIPOS>MOLECULE
*****
 42 47 0 0 0
SMALL
GASTEIGER

@<TRIPOS>ATOM
      1 N          61.7190   86.2238   10.1099 N.ar    1  UNL1       -0.2823
      2 C          61.3795   84.9531    9.3888 C.ar    1  UNL1        0.1831
      3 N          60.6608   85.3162    8.1233 N.ar    1  UNL1       -0.2236
      4 C          60.5560   86.8113    8.0623 C.ar    1  UNL1        0.0991
      5 C          59.9496   87.7344    7.0473 C.ar    1  UNL1        0.0206
      6 C          59.9972   89.2184    7.2602 C.ar    1  UNL1        0.0017
      7 C          60.6512   89.7793    8.4881 C.ar    1  UNL1        0.0016
      8 C          61.2576   88.8563    9.5030 C.ar    1  UNL1        0.0191
      9 C          61.2100   87.3723    9.2901 C.ar    1  UNL1        0.0835
     10 C          59.3907   90.1415    6.2453 C.ar    1  UNL1        0.0044
     11 C          57.9016   90.3098    6.1797 C.ar    1  UNL1        0.0208
     12 C          57.2952   91.2329    5.1648 C.ar    1  UNL1        0.1003
     13 N          58.1778   91.9878    4.2154 N.ar    1  UNL1       -0.2292
     14 C          59.6669   91.8194    4.2810 C.ar    1  UNL1        0.1318
     15 C          60.2733   90.8963    5.2959 C.ar    1  UNL1        0.0343
     16 N          60.5495   92.5742    3.3316 N.pl3   1  UNL1       -0.2904
     17 C          60.0107   93.7609    2.5891 C.3     1  UNL1        0.1092
     18 C          60.8933   94.5157    1.6397 C.3     1  UNL1        0.0904
     19 N          62.3148   94.0838    1.4329 N.3     1  UNL1       -0.2946
     20 C          62.8537   92.8970    2.1755 C.3     1  UNL1        0.0904
     21 C          61.9710   92.1423    3.1248 C.3     1  UNL1        0.1092
     22 H          62.9033   94.8789    1.6817 H       1  UNL1        0.1233
     23 C          63.6218   87.2283   13.3404 C.ar    1  UNL1        0.1512
     24 C          62.9790   87.5868   12.0334 C.ar    1  UNL1        0.0619
     25 C          62.4407   86.3279   11.4208 C.ar    1  UNL1        0.0987
     26 S          62.7507   85.1913   12.3492 S.2     1  UNL1       -0.0618
     27 C          63.4807   85.7477   13.5356 C.ar    1  UNL1        0.1178
     28 C          63.9816   84.9616   14.7108 C.2     1  UNL1        0.2518
     29 N          64.2262   85.6471   16.0224 N.am    1  UNL1       -0.3248
     30 O          64.2380   83.4900   14.5745 O.2     1  UNL1       -0.2697
     31 H          64.0579   86.6130   16.1119 H       1  UNL1        0.1453
     32 H          64.5550   85.1312   16.7937 H       1  UNL1        0.1453
     33 O          64.2885   88.1827   14.2862 O.3     1  UNL1       -0.4740
     34 C          62.9764   90.0920   15.4621 C.3     1  UNL1        0.0523
     35 C          63.8493   89.6159   14.3390 C.3     1  UNL1        0.1891
     36 C          64.2831   90.5732   13.2687 C.ar    1  UNL1        0.0278
     37 C          63.5043   90.6722   11.9905 C.ar    1  UNL1        0.0000
     38 C          63.9380   91.6294   10.9202 C.ar    1  UNL1       -0.0002
     39 C          65.1506   92.4876   11.1281 C.ar    1  UNL1        0.0008
     40 C          65.9293   92.3886   12.4062 C.ar    1  UNL1        0.0112
     41 C          65.4956   91.4314   13.4765 C.ar    1  UNL1        0.0570
     42 CL         66.2744   91.3324   14.7546 Cl      1  UNL1       -0.0825
@<TRIPOS>BOND
     1    35    34    1
     2    35    33    1
     3    33    23    1
     4    23    24   ar
     5    24    25   ar
     6    25     1    1
     7     1     2   ar
     8     2     3   ar
     9     3     4   ar
    10     4     5   ar
    11     5     6   ar
    12     6    10    1
    13    10    11   ar
    14    11    12   ar
    15    12    13   ar
    16    13    14   ar
    17    14    16    1
    18    16    17    1
    19    17    18    1
    20    18    19    1
    21    19    20    1
    22    20    21    1
    23    14    15   ar
    24     6     7   ar
    25     7     8   ar
    26     8     9   ar
    27    25    26   ar
    28    26    27   ar
    29    27    28    1
    30    28    29   am
    31    28    30    2
    32    35    36    1
    33    36    37   ar
    34    37    38   ar
    35    38    39   ar
    36    39    40   ar
    37    40    41   ar
    38    41    42    1
    39    27    23   ar
    40    41    36   ar
    41     9     1   ar
    42     9     4   ar
    43    15    10   ar
    44    21    16    1
    45    19    22    1
    46    29    31    1
    47    29    32    1
@<TRIPOS>MOLECULE
*****
 42 47 0 0 0
SMALL
GASTEIGER

@<TRIPOS>ATOM
      1 N          62.9606   86.0988   15.7039 N.ar    1  UNL1       -0.2823
      2 C          62.5626   86.2838   17.1383 C.ar    1  UNL1        0.1831
      3 N          62.9599   87.6691   17.5545 N.ar    1  UNL1       -0.2236
      4 C          63.6034   88.3402   16.3775 C.ar    1  UNL1        0.0991
      5 C          64.1890   89.7096   16.1994 C.ar    1  UNL1        0.0206
      6 C          64.7750   90.1085   14.8775 C.ar    1  UNL1        0.0017
      7 C          64.7755   89.1381   13.7337 C.ar    1  UNL1        0.0016
      8 C          64.1899   87.7687   13.9119 C.ar    1  UNL1        0.0191
      9 C          63.6039   87.3697   15.2337 C.ar    1  UNL1        0.0835
     10 C          65.3606   91.4780   14.6993 C.ar    1  UNL1        0.0044
     11 C          65.7656   92.2824   15.8989 C.ar    1  UNL1        0.0208
     12 C          66.3512   93.6518   15.7208 C.ar    1  UNL1        0.1003
     13 N          66.5319   94.2169   14.3431 N.ar    1  UNL1       -0.2292
     14 C          66.1269   93.4125   13.1435 C.ar    1  UNL1        0.1318
     15 C          65.5412   92.0431   13.3217 C.ar    1  UNL1        0.0343
     16 N          66.3075   93.9776   11.7658 N.pl3   1  UNL1       -0.2904
     17 C          66.7854   93.0960   10.6504 C.3     1  UNL1        0.1092
     18 C          66.9660   93.6610    9.2726 C.3     1  UNL1        0.0904
     19 N          66.6687   95.1076    9.0103 N.3     1  UNL1       -0.2946
     20 C          66.1907   95.9893   10.1259 C.3     1  UNL1        0.0904
     21 C          66.0101   95.4242   11.5036 C.3     1  UNL1        0.1092
     22 H          65.9511   95.1342    8.2860 H       1  UNL1        0.1233
     23 C          62.5942   83.3394   12.9989 C.ar    1  UNL1        0.1512
     24 C          62.8935   84.7551   13.3942 C.ar    1  UNL1        0.0619
     25 C          62.7521   84.8604   14.8838 C.ar    1  UNL1        0.0987
     26 S          62.3654   83.5097   15.4092 S.2     1  UNL1       -0.0618
     27 C          62.2679   82.5697   14.2444 C.ar    1  UNL1        0.1178
     28 C          61.9073   81.1152   14.3129 C.2     1  UNL1        0.2518
     29 N          60.4709   80.6933   14.2186 N.am    1  UNL1       -0.3248
     30 O          62.9831   80.0826   14.4758 O.2     1  UNL1       -0.2697
     31 H          59.7649   81.3710   14.1117 H       1  UNL1        0.1453
     32 H          60.2343   79.7387   14.2636 H       1  UNL1        0.1453
     33 O          62.6173   82.7899   11.6035 O.3     1  UNL1       -0.4740
     34 C          64.3643   83.2543    9.7374 C.3     1  UNL1        0.0523
     35 C          63.1139   83.6391   10.4712 C.3     1  UNL1        0.1891
     36 C          62.3601   84.8731   10.0725 C.ar    1  UNL1        0.0278
     37 C          61.6775   85.7053   11.1173 C.ar    1  UNL1        0.0000
     38 C          60.9236   86.9393   10.7187 C.ar    1  UNL1       -0.0002
     39 C          60.8524   87.3412    9.2753 C.ar    1  UNL1        0.0008
     40 C          61.5349   86.5090    8.2306 C.ar    1  UNL1        0.0112
     41 C          62.2888   85.2750    8.6291 C.ar    1  UNL1        0.0570
     42 CL         62.9713   84.4428    7.5844 Cl      1  UNL1       -0.0825
@<TRIPOS>BOND
     1    35    34    1
     2    35    33    1
     3    33    23    1
     4    23    24   ar
     5    24    25   ar
     6    25     1    1
     7     1     2   ar
     8     2     3   ar
     9     3     4   ar
    10     4     5   ar
    11     5     6   ar
    12     6    10    1
    13    10    11   ar
    14    11    12   ar
    15    12    13   ar
    16    13    14   ar
    17    14    16    1
    18    16    17    1
    19    17    18    1
    20    18    19    1
    21    19    20    1
    22    20    21    1
    23    14    15   ar
    24     6     7   ar
    25     7     8   ar
    26     8     9   ar
    27    25    26   ar
    28    26    27   ar
    29    27    28    1
    30    28    29   am
    31    28    30    2
    32    35    36    1
    33    36    37   ar
    34    37    38   ar
    35    38    39   ar
    36    39    40   ar
    37    40    41   ar
    38    41    42    1
    39    27    23   ar
    40    41    36   ar
    41     9     1   ar
    42     9     4   ar
    43    15    10   ar
    44    21    16    1
    45    19    22    1
    46    29    31    1
    47    29    32    1
@<TRIPOS>MOLECULE
*****
 42 47 0 0 0
SMALL
GASTEIGER

@<TRIPOS>ATOM
      1 N          61.5581   86.9715   10.1570 N.ar    1  UNL1       -0.2823
      2 C          61.1558   85.6363    9.6044 C.ar    1  UNL1        0.1831
      3 N          60.3881   85.8714    8.3373 N.ar    1  UNL1       -0.2236
      4 C          60.3160   87.3518    8.1068 C.ar    1  UNL1        0.0991
      5 C          59.6854   88.1686    7.0182 C.ar    1  UNL1        0.0206
      6 C          59.7778   89.6653    7.0542 C.ar    1  UNL1        0.0017
      7 C          60.5009   90.3452    8.1789 C.ar    1  UNL1        0.0016
      8 C          61.1316   89.5285    9.2675 C.ar    1  UNL1        0.0191
      9 C          61.0391   88.0318    9.2315 C.ar    1  UNL1        0.0835
     10 C          59.1471   90.4821    5.9656 C.ar    1  UNL1        0.0044
     11 C          57.6552   90.6239    5.9029 C.ar    1  UNL1        0.0208
     12 C          57.0245   91.4406    4.8143 C.ar    1  UNL1        0.1003
     13 N          57.8857   92.1157    3.7884 N.ar    1  UNL1       -0.2292
     14 C          59.3777   91.9740    3.8510 C.ar    1  UNL1        0.1318
     15 C          60.0084   91.1572    4.9397 C.ar    1  UNL1        0.0343
     16 N          60.2390   92.6490    2.8252 N.pl3   1  UNL1       -0.2904
     17 C          61.7293   92.4853    2.8721 C.3     1  UNL1        0.1092
     18 C          62.5906   93.1604    1.8462 C.3     1  UNL1        0.0904
     19 N          61.9616   93.9991    0.7734 N.3     1  UNL1       -0.2946
     20 C          60.4713   94.1628    0.7265 C.3     1  UNL1        0.0904
     21 C          59.6100   93.4878    1.7524 C.3     1  UNL1        0.1092
     22 H          62.2415   93.5934   -0.1196 H       1  UNL1        0.1233
     23 C          63.5936   86.8249   13.4586 C.ar    1  UNL1        0.1512
     24 C          62.8764   86.1448   12.3303 C.ar    1  UNL1        0.0619
     25 C          62.3419   87.2055   11.4144 C.ar    1  UNL1        0.0987
     26 S          62.7286   88.5413   11.9765 S.2     1  UNL1       -0.0618
     27 C          63.5022   88.3061   13.2399 C.ar    1  UNL1        0.1178
     28 C          64.0826   89.3660   14.1287 C.2     1  UNL1        0.2518
     29 N          63.8405   89.3194   15.6083 N.am    1  UNL1       -0.3248
     30 O          64.9051   90.4726   13.5378 O.2     1  UNL1       -0.2697
     31 H          63.3007   88.5932   15.9961 H       1  UNL1        0.1453
     32 H          64.2214   90.0151   16.1916 H       1  UNL1        0.1453
     33 O          64.2813   86.1436   14.6043 O.3     1  UNL1       -0.4740
     34 C          66.3796   84.6115   14.5996 C.3     1  UNL1        0.0523
     35 C          64.9027   84.7923   14.4097 C.3     1  UNL1        0.1891
     36 C          64.0471   83.6218   14.0253 C.ar    1  UNL1        0.0278
     37 C          64.4024   82.7951   12.8251 C.ar    1  UNL1        0.0000
     38 C          63.5468   81.6246   12.4406 C.ar    1  UNL1       -0.0002
     39 C          62.3359   81.2807   13.2563 C.ar    1  UNL1        0.0008
     40 C          61.9805   82.1073   14.4564 C.ar    1  UNL1        0.0112
     41 C          62.8361   83.2779   14.8410 C.ar    1  UNL1        0.0570
     42 CL         62.4808   84.1045   16.0411 Cl      1  UNL1       -0.0825
@<TRIPOS>BOND
     1    35    34    1
     2    35    33    1
     3    33    23    1
     4    23    24   ar
     5    24    25   ar
     6    25     1    1
     7     1     2   ar
     8     2     3   ar
     9     3     4   ar
    10     4     5   ar
    11     5     6   ar
    12     6    10    1
    13    10    11   ar
    14    11    12   ar
    15    12    13   ar
    16    13    14   ar
    17    14    16    1
    18    16    17    1
    19    17    18    1
    20    18    19    1
    21    19    20    1
    22    20    21    1
    23    14    15   ar
    24     6     7   ar
    25     7     8   ar
    26     8     9   ar
    27    25    26   ar
    28    26    27   ar
    29    27    28    1
    30    28    29   am
    31    28    30    2
    32    35    36    1
    33    36    37   ar
    34    37    38   ar
    35    38    39   ar
    36    39    40   ar
    37    40    41   ar
    38    41    42    1
    39    27    23   ar
    40    41    36   ar
    41     9     1   ar
    42     9     4   ar
    43    15    10   ar
    44    21    16    1
    45    19    22    1
    46    29    31    1
    47    29    32    1
@<TRIPOS>MOLECULE
*****
 42 47 0 0 0
SMALL
GASTEIGER

@<TRIPOS>ATOM
      1 N          62.0519   87.3884   10.7608 N.ar    1  UNL1       -0.2823
      2 C          62.4387   88.5778   11.5890 C.ar    1  UNL1        0.1831
      3 N          61.9557   89.8104   10.8838 N.ar    1  UNL1       -0.2236
      4 C          61.2703   89.3829    9.6199 C.ar    1  UNL1        0.0991
      5 C          60.5998   90.1633    8.5284 C.ar    1  UNL1        0.0206
      6 C          59.9888   89.4468    7.3609 C.ar    1  UNL1        0.0017
      7 C          60.0482   87.9499    7.2848 C.ar    1  UNL1        0.0016
      8 C          60.7188   87.1695    8.3763 C.ar    1  UNL1        0.0191
      9 C          61.3298   87.8861    9.5438 C.ar    1  UNL1        0.0835
     10 C          59.3182   90.2272    6.2693 C.ar    1  UNL1        0.0044
     11 C          57.8214   90.3114    6.2184 C.ar    1  UNL1        0.0208
     12 C          57.1508   91.0917    5.1269 C.ar    1  UNL1        0.1003
     13 N          57.9770   91.7879    4.0863 N.ar    1  UNL1       -0.2292
     14 C          59.4738   91.7037    4.1372 C.ar    1  UNL1        0.1318
     15 C          60.1444   90.9233    5.2288 C.ar    1  UNL1        0.0343
     16 N          60.3000   92.3997    3.0966 N.pl3   1  UNL1       -0.2904
     17 C          61.7958   92.2932    3.1319 C.3     1  UNL1        0.1092
     18 C          62.6220   92.9893    2.0913 C.3     1  UNL1        0.0904
     19 N          61.9525   93.7920    1.0155 N.3     1  UNL1       -0.2946
     20 C          60.4566   93.8985    0.9802 C.3     1  UNL1        0.0904
     21 C          59.6304   93.2024    2.0208 C.3     1  UNL1        0.1092
     22 H          62.2400   93.3875    0.1243 H       1  UNL1        0.1233
     23 C          62.4745   83.8418   12.2802 C.ar    1  UNL1        0.1512
     24 C          62.0170   85.2664   12.3858 C.ar    1  UNL1        0.0619
     25 C          62.3371   85.9534   11.0915 C.ar    1  UNL1        0.0987
     26 S          62.9926   84.9534   10.1857 S.2     1  UNL1       -0.0618
     27 C          63.0775   83.6484   10.9204 C.ar    1  UNL1        0.1178
     28 C          63.6627   82.3737   10.3886 C.2     1  UNL1        0.2518
     29 N          63.0007   81.0617   10.6892 N.am    1  UNL1       -0.3248
     30 O          64.9100   82.4110    9.5561 O.2     1  UNL1       -0.2697
     31 H          62.1821   81.0372   11.2356 H       1  UNL1        0.1453
     32 H          63.3848   80.2251   10.3402 H       1  UNL1        0.1453
     33 O          62.3509   82.7946   13.3469 O.3     1  UNL1       -0.4740
     34 C          63.8727   81.7283   15.1626 C.3     1  UNL1        0.0523
     35 C          63.1424   82.9186   14.6150 C.3     1  UNL1        0.1891
     36 C          63.2036   84.2328   15.3354 C.ar    1  UNL1        0.0278
     37 C          62.1233   84.6068   16.3065 C.ar    1  UNL1        0.0000
     38 C          62.1845   85.9210   17.0269 C.ar    1  UNL1       -0.0002
     39 C          63.3261   86.8612   16.7763 C.ar    1  UNL1        0.0008
     40 C          64.4064   86.4872   15.8054 C.ar    1  UNL1        0.0112
     41 C          64.3452   85.1730   15.0848 C.ar    1  UNL1        0.0570
     42 CL         65.4255   84.7990   14.1138 Cl      1  UNL1       -0.0825
@<TRIPOS>BOND
     1    35    34    1
     2    35    33    1
     3    33    23    1
     4    23    24   ar
     5    24    25   ar
     6    25     1    1
     7     1     2   ar
     8     2     3   ar
     9     3     4   ar
    10     4     5   ar
    11     5     6   ar
    12     6    10    1
    13    10    11   ar
    14    11    12   ar
    15    12    13   ar
    16    13    14   ar
    17    14    16    1
    18    16    17    1
    19    17    18    1
    20    18    19    1
    21    19    20    1
    22    20    21    1
    23    14    15   ar
    24     6     7   ar
    25     7     8   ar
    26     8     9   ar
    27    25    26   ar
    28    26    27   ar
    29    27    28    1
    30    28    29   am
    31    28    30    2
    32    35    36    1
    33    36    37   ar
    34    37    38   ar
    35    38    39   ar
    36    39    40   ar
    37    40    41   ar
    38    41    42    1
    39    27    23   ar
    40    41    36   ar
    41     9     1   ar
    42     9     4   ar
    43    15    10   ar
    44    21    16    1
    45    19    22    1
    46    29    31    1
    47    29    32    1
@<TRIPOS>MOLECULE
*****
 42 47 0 0 0
SMALL
GASTEIGER

@<TRIPOS>ATOM
      1 N          63.2903   93.7384    0.1705 N.ar    1  UNL1       -0.2823
      2 C          64.5695   93.3467    0.8489 C.ar    1  UNL1        0.1831
      3 N          64.2199   92.6384    2.1240 N.ar    1  UNL1       -0.2236
      4 C          62.7246   92.5924    2.2338 C.ar    1  UNL1        0.0991
      5 C          61.8119   92.0192    3.2771 C.ar    1  UNL1        0.0206
      6 C          60.3248   92.1260    3.1131 C.ar    1  UNL1        0.0017
      7 C          59.7503   92.8058    1.9057 C.ar    1  UNL1        0.0016
      8 C          60.6629   93.3790    0.8624 C.ar    1  UNL1        0.0191
      9 C          62.1501   93.2723    1.0264 C.ar    1  UNL1        0.0835
     10 C          59.4121   91.5528    4.1564 C.ar    1  UNL1        0.0044
     11 C          57.9590   91.9248    4.1679 C.ar    1  UNL1        0.0208
     12 C          57.0463   91.3517    5.2112 C.ar    1  UNL1        0.1003
     13 N          57.5867   90.4065    6.2430 N.ar    1  UNL1       -0.2292
     14 C          59.0397   90.0345    6.2316 C.ar    1  UNL1        0.1318
     15 C          59.9525   90.6077    5.1882 C.ar    1  UNL1        0.0343
     16 N          59.5801   89.0894    7.2634 N.pl3   1  UNL1       -0.2904
     17 C          60.2802   89.6246    8.4772 C.3     1  UNL1        0.1092
     18 C          60.8206   88.6794    9.5091 C.3     1  UNL1        0.0904
     19 N          60.6609   87.1991    9.3271 N.3     1  UNL1       -0.2946
     20 C          59.9608   86.6639    8.1132 C.3     1  UNL1        0.0904
     21 C          59.4205   87.6091    7.0813 C.3     1  UNL1        0.1092
     22 H          60.1467   86.8564   10.1386 H       1  UNL1        0.1233
     23 C          62.2425   95.5532   -3.0967 C.ar    1  UNL1        0.1512
     24 C          61.8930   94.8354   -1.8268 C.ar    1  UNL1        0.0619
     25 C          63.1720   94.4683   -1.1346 C.ar    1  UNL1        0.0987
     26 S          64.3122   94.9591   -1.9767 S.2     1  UNL1       -0.0618
     27 C          63.7377   95.6296   -3.1894 C.ar    1  UNL1        0.1178
     28 C          64.5209   96.2650   -4.2998 C.2     1  UNL1        0.2518
     29 N          63.9535   96.3098   -5.6875 N.am    1  UNL1       -0.3248
     30 O          65.8716   96.8555   -4.0223 O.2     1  UNL1       -0.2697
     31 H          63.0670   95.9223   -5.8696 H       1  UNL1        0.1453
     32 H          64.4675   96.7268   -6.4163 H       1  UNL1        0.1453
     33 O          61.2680   96.0986   -4.0980 O.3     1  UNL1       -0.4740
     34 C          60.7345   94.7571   -6.2580 C.3     1  UNL1        0.0523
     35 C          60.3746   95.1656   -4.8603 C.3     1  UNL1        0.1891
     36 C          59.1212   94.6410   -4.2249 C.ar    1  UNL1        0.0278
     37 C          59.1617   93.3774   -3.4176 C.ar    1  UNL1        0.0000
     38 C          57.9083   92.8528   -2.7821 C.ar    1  UNL1       -0.0002
     39 C          56.6143   93.5918   -2.9541 C.ar    1  UNL1        0.0008
     40 C          56.5738   94.8553   -3.7613 C.ar    1  UNL1        0.0112
     41 C          57.8272   95.3800   -4.3968 C.ar    1  UNL1        0.0570
     42 CL         57.7866   96.6435   -5.2041 Cl      1  UNL1       -0.0825
@<TRIPOS>BOND
     1    35    34    1
     2    35    33    1
     3    33    23    1
     4    23    24   ar
     5    24    25   ar
     6    25     1    1
     7     1     2   ar
     8     2     3   ar
     9     3     4   ar
    10     4     5   ar
    11     5     6   ar
    12     6    10    1
    13    10    11   ar
    14    11    12   ar
    15    12    13   ar
    16    13    14   ar
    17    14    16    1
    18    16    17    1
    19    17    18    1
    20    18    19    1
    21    19    20    1
    22    20    21    1
    23    14    15   ar
    24     6     7   ar
    25     7     8   ar
    26     8     9   ar
    27    25    26   ar
    28    26    27   ar
    29    27    28    1
    30    28    29   am
    31    28    30    2
    32    35    36    1
    33    36    37   ar
    34    37    38   ar
    35    38    39   ar
    36    39    40   ar
    37    40    41   ar
    38    41    42    1
    39    27    23   ar
    40    41    36   ar
    41     9     1   ar
    42     9     4   ar
    43    15    10   ar
    44    21    16    1
    45    19    22    1
    46    29    31    1
    47    29    32    1
