@<TRIPOS>MOLECULE
*****
 27 29 0 0 0
SMALL
GASTEIGER

@<TRIPOS>ATOM
      1 C          64.0821   86.9545   14.9106 C.ar    1  UNL1        0.1655
      2 N          63.8776   85.9026   13.8610 N.ar    1  UNL1       -0.2239
      3 C          63.3341   84.6767   14.5330 C.ar    1  UNL1        0.0899
      4 C          63.2026   84.9709   15.9980 C.ar    1  UNL1        0.0572
      5 S          63.6648   86.3786   16.2314 S.2     1  UNL1       -0.0508
      6 C          62.9836   83.3836   13.8585 C.ar    1  UNL1        0.0225
      7 C          62.1753   82.3520   14.5882 C.ar    1  UNL1        0.0223
      8 C          61.8248   81.0589   13.9138 C.ar    1  UNL1        0.1003
      9 N          62.2825   80.7973   12.5094 N.ar    1  UNL1       -0.2296
     10 C          63.0908   81.8289   11.7796 C.ar    1  UNL1        0.1254
     11 N          63.5485   81.5673   10.3753 N.pl3   1  UNL1       -0.3426
     12 C          63.4413   83.1220   12.4542 C.ar    1  UNL1        0.0354
     13 H          63.3184   80.7186    9.9326 H       1  UNL1        0.1437
     14 H          64.0790   82.2444    9.8963 H       1  UNL1        0.1437
     15 C          63.7856   89.5310   15.0655 C.2     1  UNL1        0.2320
     16 O          62.4317   89.3382   15.6816 O.2     1  UNL1       -0.2744
     17 N          64.6108   88.3391   14.6800 N.am    1  UNL1       -0.2639
     18 H          65.4995   88.4656   14.2756 H       1  UNL1        0.1567
     19 C          64.3144   90.9156   14.8349 C.3     1  UNL1        0.1118
     20 C          65.8374   92.9045   11.7568 C.ar    1  UNL1        0.1384
     21 C          64.9716   92.4033   10.6391 C.ar    1  UNL1        0.0369
     22 C          63.8868   91.4062   10.9200 C.ar    1  UNL1        0.0028
     23 C          63.6677   90.9103   12.3186 C.ar    1  UNL1       -0.0036
     24 C          64.5335   91.4115   13.4362 C.ar    1  UNL1       -0.0101
     25 C          65.6183   92.4086   13.1553 C.ar    1  UNL1        0.0331
     26 C          67.0266   94.5343   10.1199 C.3     1  UNL1        0.2525
     27 O          66.9222   93.9016   11.4759 O.3     1  UNL1       -0.4714
@<TRIPOS>BOND
     1    26    27    1
     2    27    20    1
     3    20    21   ar
     4    21    22   ar
     5    22    23   ar
     6    23    24   ar
     7    24    19    1
     8    19    15    1
     9    15    16    2
    10    15    17   am
    11    17     1    1
    12     1     2   ar
    13     2     3   ar
    14     3     6    1
    15     6     7   ar
    16     7     8   ar
    17     8     9   ar
    18     9    10   ar
    19    10    11    1
    20    10    12   ar
    21     3     4   ar
    22     4     5   ar
    23    24    25   ar
    24    25    20   ar
    25     5     1   ar
    26    12     6   ar
    27    17    18    1
    28    11    13    1
    29    11    14    1
@<TRIPOS>MOLECULE
*****
 27 29 0 0 0
SMALL
GASTEIGER

@<TRIPOS>ATOM
      1 C          63.0649   88.5675   12.3369 C.ar    1  UNL1        0.1655
      2 N          63.4193   87.2062   12.8576 N.ar    1  UNL1       -0.2239
      3 C          62.8079   86.1865   11.9431 C.ar    1  UNL1        0.0899
      4 C          62.0755   86.9176   10.8572 C.ar    1  UNL1        0.0572
      5 S          62.2344   88.3892   11.1006 S.2     1  UNL1       -0.0508
      6 C          62.9107   84.6971   12.0888 C.ar    1  UNL1        0.0225
      7 C          63.3520   83.8584   10.9262 C.ar    1  UNL1        0.0223
      8 C          63.4549   82.3692   11.0718 C.ar    1  UNL1        0.1003
      9 N          63.1164   81.7184   12.3804 N.ar    1  UNL1       -0.2296
     10 C          62.6751   82.5571   13.5430 C.ar    1  UNL1        0.1254
     11 N          62.3366   81.9064   14.8515 N.pl3   1  UNL1       -0.3426
     12 C          62.5722   84.0464   13.3973 C.ar    1  UNL1        0.0354
     13 H          62.4041   80.9289   14.9471 H       1  UNL1        0.1437
     14 H          62.0469   82.4568   15.6146 H       1  UNL1        0.1437
     15 C          63.6955   89.9788   14.4252 C.2     1  UNL1        0.2320
     16 O          63.5161   88.7706   15.2959 O.2     1  UNL1       -0.2744
     17 N          63.4699   89.8772   12.9457 N.am    1  UNL1       -0.2639
     18 H          63.5876   90.6702   12.3742 H       1  UNL1        0.1567
     19 C          64.1004   91.2885   15.0340 C.3     1  UNL1        0.1118
     20 C          67.7705   91.9464   13.6745 C.ar    1  UNL1        0.1384
     21 C          68.3963   92.6173   14.8612 C.ar    1  UNL1        0.0369
     22 C          67.5902   92.8453   16.1054 C.ar    1  UNL1        0.0028
     23 C          66.1582   92.4024   16.1630 C.ar    1  UNL1       -0.0036
     24 C          65.5324   91.7314   14.9764 C.ar    1  UNL1       -0.0101
     25 C          66.3385   91.5035   13.7321 C.ar    1  UNL1        0.0331
     26 C          67.9953   92.0521   11.0884 C.3     1  UNL1        0.2525
     27 O          68.5766   91.7184   12.4302 O.3     1  UNL1       -0.4714
@<TRIPOS>BOND
     1    26    27    1
     2    27    20    1
     3    20    21   ar
     4    21    22   ar
     5    22    23   ar
     6    23    24   ar
     7    24    19    1
     8    19    15    1
     9    15    16    2
    10    15    17   am
    11    17     1    1
    12     1     2   ar
    13     2     3   ar
    14     3     6    1
    15     6     7   ar
    16     7     8   ar
    17     8     9   ar
    18     9    10   ar
    19    10    11    1
    20    10    12   ar
    21     3     4   ar
    22     4     5   ar
    23    24    25   ar
    24    25    20   ar
    25     5     1   ar
    26    12     6   ar
    27    17    18    1
    28    11    13    1
    29    11    14    1
@<TRIPOS>MOLECULE
*****
 27 29 0 0 0
SMALL
GASTEIGER

@<TRIPOS>ATOM
      1 C          64.1515   86.8671   14.7990 C.ar    1  UNL1        0.1655
      2 N          64.0031   86.0019   13.5828 N.ar    1  UNL1       -0.2239
      3 C          63.6831   84.6098   14.0405 C.ar    1  UNL1        0.0899
      4 C          63.6336   84.6146   15.5397 C.ar    1  UNL1        0.0572
      5 S          63.9231   86.0097   16.0085 S.2     1  UNL1       -0.0508
      6 C          63.4528   83.4214   13.1546 C.ar    1  UNL1        0.0225
      7 C          63.8048   83.4922   11.6982 C.ar    1  UNL1        0.0223
      8 C          63.5747   82.3040   10.8123 C.ar    1  UNL1        0.1003
      9 N          62.9924   81.0447   11.3828 N.ar    1  UNL1       -0.2296
     10 C          62.6404   80.9738   12.8392 C.ar    1  UNL1        0.1254
     11 N          62.0582   79.7146   13.4097 N.pl3   1  UNL1       -0.3426
     12 C          62.8706   82.1622   13.7251 C.ar    1  UNL1        0.0354
     13 H          61.9072   78.9347   12.8282 H       1  UNL1        0.1437
     14 H          61.8272   79.6681   14.3655 H       1  UNL1        0.1437
     15 C          63.5940   89.2892   15.5558 C.2     1  UNL1        0.2320
     16 O          62.3957   88.7806   16.3010 O.2     1  UNL1       -0.2744
     17 N          64.4719   88.3324   14.8048 N.am    1  UNL1       -0.2639
     18 H          65.2585   88.6663   14.3158 H       1  UNL1        0.1567
     19 C          63.9145   90.7546   15.5616 C.3     1  UNL1        0.1118
     20 C          67.1048   92.3104   13.7865 C.ar    1  UNL1        0.1384
     21 C          66.5939   92.4844   12.3870 C.ar    1  UNL1        0.0369
     22 C          65.1899   92.0817   12.0456 C.ar    1  UNL1        0.0028
     23 C          64.2967   91.5051   13.1038 C.ar    1  UNL1       -0.0036
     24 C          64.8076   91.3312   14.5033 C.ar    1  UNL1       -0.0101
     25 C          66.2117   91.7339   14.8447 C.ar    1  UNL1        0.0331
     26 C          68.8688   93.0515   15.5441 C.3     1  UNL1        0.2525
     27 O          68.5089   92.7131   14.1278 O.3     1  UNL1       -0.4714
@<TRIPOS>BOND
     1    26    27    1
     2    27    20    1
     3    20    21   ar
     4    21    22   ar
     5    22    23   ar
     6    23    24   ar
     7    24    19    1
     8    19    15    1
     9    15    16    2
    10    15    17   am
    11    17     1    1
    12     1     2   ar
    13     2     3   ar
    14     3     6    1
    15     6     7   ar
    16     7     8   ar
    17     8     9   ar
    18     9    10   ar
    19    10    11    1
    20    10    12   ar
    21     3     4   ar
    22     4     5   ar
    23    24    25   ar
    24    25    20   ar
    25     5     1   ar
    26    12     6   ar
    27    17    18    1
    28    11    13    1
    29    11    14    1
@<TRIPOS>MOLECULE
*****
 27 29 0 0 0
SMALL
GASTEIGER

@<TRIPOS>ATOM
      1 C          63.5835   88.0987   15.7087 C.ar    1  UNL1        0.1655
      2 N          64.4643   88.6601   14.6322 N.ar    1  UNL1       -0.2239
      3 C          64.5355   90.1466   14.8197 C.ar    1  UNL1        0.0899
      4 C          63.6987   90.5040   16.0123 C.ar    1  UNL1        0.0572
      5 S          63.1103   89.2383   16.5616 S.2     1  UNL1       -0.0508
      6 C          65.3080   91.1072   13.9649 C.ar    1  UNL1        0.0225
      7 C          66.6464   91.6078   14.4208 C.ar    1  UNL1        0.0223
      8 C          67.4189   92.5683   13.5661 C.ar    1  UNL1        0.1003
      9 N          66.8528   93.0283   12.2553 N.ar    1  UNL1       -0.2296
     10 C          65.5144   92.5276   11.7994 C.ar    1  UNL1        0.1254
     11 N          64.9483   92.9876   10.4886 N.pl3   1  UNL1       -0.3426
     12 C          64.7419   91.5671   12.6542 C.ar    1  UNL1        0.0354
     13 H          65.4553   93.6180    9.9276 H       1  UNL1        0.1437
     14 H          64.0699   92.6590   10.1894 H       1  UNL1        0.1437
     15 C          64.2081   85.5869   15.4834 C.2     1  UNL1        0.2320
     16 O          65.5261   85.9689   14.8778 O.2     1  UNL1       -0.2744
     17 N          63.2368   86.6518   15.8989 N.am    1  UNL1       -0.2639
     18 H          62.3717   86.4011   16.2964 H       1  UNL1        0.1567
     19 C          63.8613   84.1400   15.6736 C.3     1  UNL1        0.1118
     20 C          63.8469   82.5855   12.0221 C.ar    1  UNL1        0.1384
     21 C          62.7051   81.6188   12.1301 C.ar    1  UNL1        0.0369
     22 C          61.9487   81.4924   13.4193 C.ar    1  UNL1        0.0028
     23 C          62.3341   82.3328   14.6004 C.ar    1  UNL1       -0.0036
     24 C          63.4759   83.2995   14.4924 C.ar    1  UNL1       -0.0101
     25 C          64.2323   83.4259   13.2033 C.ar    1  UNL1        0.0331
     26 C          64.0577   83.5611    9.6234 C.3     1  UNL1        0.2525
     27 O          64.6033   82.7119   10.7330 O.3     1  UNL1       -0.4714
@<TRIPOS>BOND
     1    26    27    1
     2    27    20    1
     3    20    21   ar
     4    21    22   ar
     5    22    23   ar
     6    23    24   ar
     7    24    19    1
     8    19    15    1
     9    15    16    2
    10    15    17   am
    11    17     1    1
    12     1     2   ar
    13     2     3   ar
    14     3     6    1
    15     6     7   ar
    16     7     8   ar
    17     8     9   ar
    18     9    10   ar
    19    10    11    1
    20    10    12   ar
    21     3     4   ar
    22     4     5   ar
    23    24    25   ar
    24    25    20   ar
    25     5     1   ar
    26    12     6   ar
    27    17    18    1
    28    11    13    1
    29    11    14    1
@<TRIPOS>MOLECULE
*****
 27 29 0 0 0
SMALL
GASTEIGER

@<TRIPOS>ATOM
      1 C          62.4130   87.6252   11.2305 C.ar    1  UNL1        0.1655
      2 N          62.7841   86.4097   12.0273 N.ar    1  UNL1       -0.2239
      3 C          62.4722   85.1991   11.1984 C.ar    1  UNL1        0.0899
      4 C          61.9083   85.6663    9.8893 C.ar    1  UNL1        0.0572
      5 S          61.8717   87.1658    9.9091 S.2     1  UNL1       -0.0508
      6 C          62.6865   83.7718   11.6069 C.ar    1  UNL1        0.0225
      7 C          63.1865   82.7723   10.6064 C.ar    1  UNL1        0.0223
      8 C          63.4009   81.3451   11.0147 C.ar    1  UNL1        0.1003
      9 N          63.1152   80.9171   12.4239 N.ar    1  UNL1       -0.2296
     10 C          62.6152   81.9166   13.4244 C.ar    1  UNL1        0.1254
     11 N          62.3295   81.4887   14.8334 N.pl3   1  UNL1       -0.3426
     12 C          62.4009   83.3439   13.0159 C.ar    1  UNL1        0.0354
     13 H          62.4702   80.5520   15.1015 H       1  UNL1        0.1437
     14 H          62.0014   82.1447   15.4901 H       1  UNL1        0.1437
     15 C          63.3157   89.3697   12.9311 C.2     1  UNL1        0.2320
     16 O          63.9288   88.2647   13.7392 O.2     1  UNL1       -0.2744
     17 N          62.5577   89.0499   11.6767 N.am    1  UNL1       -0.2639
     18 H          62.1553   89.7752   11.1463 H       1  UNL1        0.1567
     19 C          63.4604   90.7944   13.3773 C.3     1  UNL1        0.1118
     20 C          66.6464   93.0271   12.5933 C.ar    1  UNL1        0.1384
     21 C          67.5503   92.6387   13.7255 C.ar    1  UNL1        0.0369
     22 C          67.0910   91.6355   14.7417 C.ar    1  UNL1        0.0028
     23 C          65.7277   91.0207   14.6256 C.ar    1  UNL1       -0.0036
     24 C          64.8238   91.4092   13.4934 C.ar    1  UNL1       -0.0101
     25 C          65.2831   92.4124   12.4772 C.ar    1  UNL1        0.0331
     26 C          66.2176   95.1798   11.2034 C.3     1  UNL1        0.2525
     27 O          67.1058   94.0303   11.5771 O.3     1  UNL1       -0.4714
@<TRIPOS>BOND
     1    26    27    1
     2    27    20    1
     3    20    21   ar
     4    21    22   ar
     5    22    23   ar
     6    23    24   ar
     7    24    19    1
     8    19    15    1
     9    15    16    2
    10    15    17   am
    11    17     1    1
    12     1     2   ar
    13     2     3   ar
    14     3     6    1
    15     6     7   ar
    16     7     8   ar
    17     8     9   ar
    18     9    10   ar
    19    10    11    1
    20    10    12   ar
    21     3     4   ar
    22     4     5   ar
    23    24    25   ar
    24    25    20   ar
    25     5     1   ar
    26    12     6   ar
    27    17    18    1
    28    11    13    1
    29    11    14    1
@<TRIPOS>MOLECULE
*****
 27 29 0 0 0
SMALL
GASTEIGER

@<TRIPOS>ATOM
      1 C          62.8129   88.9081   11.8462 C.ar    1  UNL1        0.1655
      2 N          63.8759   89.5299   12.7026 N.ar    1  UNL1       -0.2239
      3 C          63.9829   90.9789   12.3296 C.ar    1  UNL1        0.0899
      4 C          62.9860   91.2526   11.2426 C.ar    1  UNL1        0.0572
      5 S          62.2629   89.9728   10.9439 S.2     1  UNL1       -0.0508
      6 C          64.9220   91.9786   12.9368 C.ar    1  UNL1        0.0225
      7 C          65.5200   93.0593   12.0856 C.ar    1  UNL1        0.0223
      8 C          66.4589   94.0590   12.6928 C.ar    1  UNL1        0.1003
      9 N          66.8001   93.9781   14.1513 N.ar    1  UNL1       -0.2296
     10 C          66.2021   92.8974   15.0025 C.ar    1  UNL1        0.1254
     11 N          66.5431   92.8165   16.4610 N.pl3   1  UNL1       -0.3426
     12 C          65.2630   91.8977   14.3953 C.ar    1  UNL1        0.0354
     13 H          67.1594   93.4726   16.8595 H       1  UNL1        0.1437
     14 H          66.1506   92.1072   17.0197 H       1  UNL1        0.1437
     15 C          62.1702   86.7173   10.6064 C.2     1  UNL1        0.2320
     16 O          62.4004   87.3956    9.2885 O.2     1  UNL1       -0.2744
     17 N          62.3765   87.4736   11.8853 N.am    1  UNL1       -0.2639
     18 H          62.2254   87.0284   12.7503 H       1  UNL1        0.1567
     19 C          61.7338   85.2827   10.6455 C.3     1  UNL1        0.1118
     20 C          63.5002   82.9137   13.2946 C.ar    1  UNL1        0.1384
     21 C          64.4439   82.1537   12.4104 C.ar    1  UNL1        0.0369
     22 C          64.4843   82.4368   10.9379 C.ar    1  UNL1        0.0028
     23 C          63.5810   83.4798   10.3496 C.ar    1  UNL1       -0.0036
     24 C          62.6372   84.2397   11.2338 C.ar    1  UNL1       -0.0101
     25 C          62.5968   83.9566   12.7063 C.ar    1  UNL1        0.0331
     26 C          62.8519   83.6296   15.7064 C.3     1  UNL1        0.2525
     27 O          63.4598   82.6306   14.7671 O.3     1  UNL1       -0.4714
@<TRIPOS>BOND
     1    26    27    1
     2    27    20    1
     3    20    21   ar
     4    21    22   ar
     5    22    23   ar
     6    23    24   ar
     7    24    19    1
     8    19    15    1
     9    15    16    2
    10    15    17   am
    11    17     1    1
    12     1     2   ar
    13     2     3   ar
    14     3     6    1
    15     6     7   ar
    16     7     8   ar
    17     8     9   ar
    18     9    10   ar
    19    10    11    1
    20    10    12   ar
    21     3     4   ar
    22     4     5   ar
    23    24    25   ar
    24    25    20   ar
    25     5     1   ar
    26    12     6   ar
    27    17    18    1
    28    11    13    1
    29    11    14    1
@<TRIPOS>MOLECULE
*****
 27 29 0 0 0
SMALL
GASTEIGER

@<TRIPOS>ATOM
      1 C          63.9784   86.8034   14.6730 C.ar    1  UNL1        0.1655
      2 N          63.7583   85.9829   13.4368 N.ar    1  UNL1       -0.2239
      3 C          63.7541   84.5367   13.8350 C.ar    1  UNL1        0.0899
      4 C          63.9716   84.4634   15.3174 C.ar    1  UNL1        0.0572
      5 S          64.1102   85.8643   15.8353 S.2     1  UNL1       -0.0508
      6 C          63.5656   83.3688   12.9128 C.ar    1  UNL1        0.0225
      7 C          63.9452   83.4863   11.4664 C.ar    1  UNL1        0.0223
      8 C          63.7567   82.3186   10.5441 C.ar    1  UNL1        0.1003
      9 N          63.1884   81.0330   11.0683 N.ar    1  UNL1       -0.2296
     10 C          62.8088   80.9155   12.5147 C.ar    1  UNL1        0.1254
     11 N          62.2405   79.6301   13.0388 N.pl3   1  UNL1       -0.3426
     12 C          62.9973   82.0834   13.4369 C.ar    1  UNL1        0.0354
     13 H          62.1167   78.8635   12.4335 H       1  UNL1        0.1437
     14 H          61.9913   79.5529   13.9881 H       1  UNL1        0.1437
     15 C          63.5863   89.1241   13.5727 C.2     1  UNL1        0.2320
     16 O          63.0440   88.4512   12.3467 O.2     1  UNL1       -0.2744
     17 N          64.0535   88.3002   14.7359 N.am    1  UNL1       -0.2639
     18 H          64.4094   88.7418   15.5406 H       1  UNL1        0.1567
     19 C          63.6613   90.6209   13.6356 C.3     1  UNL1        0.1118
     20 C          66.6885   92.9419   12.5405 C.ar    1  UNL1        0.1384
     21 C          67.6654   92.6745   13.6469 C.ar    1  UNL1        0.0369
     22 C          67.3076   91.7226   14.7496 C.ar    1  UNL1        0.0028
     23 C          65.9729   91.0381   14.7458 C.ar    1  UNL1       -0.0036
     24 C          64.9961   91.3054   13.6394 C.ar    1  UNL1       -0.0101
     25 C          65.3539   92.2573   12.5367 C.ar    1  UNL1        0.0331
     26 C          65.9724   94.4553   10.5539 C.3     1  UNL1        0.2525
     27 O          67.0463   93.8937   11.4378 O.3     1  UNL1       -0.4714
@<TRIPOS>BOND
     1    26    27    1
     2    27    20    1
     3    20    21   ar
     4    21    22   ar
     5    22    23   ar
     6    23    24   ar
     7    24    19    1
     8    19    15    1
     9    15    16    2
    10    15    17   am
    11    17     1    1
    12     1     2   ar
    13     2     3   ar
    14     3     6    1
    15     6     7   ar
    16     7     8   ar
    17     8     9   ar
    18     9    10   ar
    19    10    11    1
    20    10    12   ar
    21     3     4   ar
    22     4     5   ar
    23    24    25   ar
    24    25    20   ar
    25     5     1   ar
    26    12     6   ar
    27    17    18    1
    28    11    13    1
    29    11    14    1
@<TRIPOS>MOLECULE
*****
 27 29 0 0 0
SMALL
GASTEIGER

@<TRIPOS>ATOM
      1 C          62.3745   87.2193   11.0560 C.ar    1  UNL1        0.1655
      2 N          62.7221   86.3270   12.2105 N.ar    1  UNL1       -0.2239
      3 C          62.4806   84.9079   11.7887 C.ar    1  UNL1        0.0899
      4 C          61.9837   84.9232   10.3734 C.ar    1  UNL1        0.0572
      5 S          61.9181   86.3517    9.9206 S.2     1  UNL1       -0.0508
      6 C          62.6978   83.6878   12.6337 C.ar    1  UNL1        0.0225
      7 C          63.0618   83.8332   14.0816 C.ar    1  UNL1        0.0223
      8 C          63.2790   82.6132   14.9266 C.ar    1  UNL1        0.1003
      9 N          63.1323   81.2474   14.3238 N.ar    1  UNL1       -0.2296
     10 C          62.7683   81.1019   12.8759 C.ar    1  UNL1        0.1254
     11 N          62.6215   79.7363   12.2731 N.pl3   1  UNL1       -0.3426
     12 C          62.5510   82.3221   12.0309 C.ar    1  UNL1        0.0354
     13 H          62.7640   78.9355   12.8277 H       1  UNL1        0.1437
     14 H          62.3826   79.6408   11.3228 H       1  UNL1        0.1437
     15 C          63.0502   89.4445   12.2143 C.2     1  UNL1        0.2320
     16 O          63.5409   88.6757   13.4052 O.2     1  UNL1       -0.2744
     17 N          62.4670   88.7163   11.0397 N.am    1  UNL1       -0.2639
     18 H          62.1450   89.2209   10.2582 H       1  UNL1        0.1567
     19 C          63.1428   90.9416   12.1981 C.3     1  UNL1        0.1118
     20 C          66.4520   92.2467   13.9575 C.ar    1  UNL1        0.1384
     21 C          67.1183   92.9570   12.8167 C.ar    1  UNL1        0.0369
     22 C          66.4595   92.9955   11.4697 C.ar    1  UNL1        0.0028
     23 C          65.1343   92.3237   11.2635 C.ar    1  UNL1       -0.0036
     24 C          64.4680   91.6134   12.4043 C.ar    1  UNL1       -0.0101
     25 C          65.1268   91.5749   13.7513 C.ar    1  UNL1        0.0331
     26 C          68.0062   93.3325   15.7339 C.3     1  UNL1        0.2525
     27 O          67.1108   92.2082   15.3045 O.3     1  UNL1       -0.4714
@<TRIPOS>BOND
     1    26    27    1
     2    27    20    1
     3    20    21   ar
     4    21    22   ar
     5    22    23   ar
     6    23    24   ar
     7    24    19    1
     8    19    15    1
     9    15    16    2
    10    15    17   am
    11    17     1    1
    12     1     2   ar
    13     2     3   ar
    14     3     6    1
    15     6     7   ar
    16     7     8   ar
    17     8     9   ar
    18     9    10   ar
    19    10    11    1
    20    10    12   ar
    21     3     4   ar
    22     4     5   ar
    23    24    25   ar
    24    25    20   ar
    25     5     1   ar
    26    12     6   ar
    27    17    18    1
    28    11    13    1
    29    11    14    1
@<TRIPOS>MOLECULE
*****
 27 29 0 0 0
SMALL
GASTEIGER

@<TRIPOS>ATOM
      1 C          61.8002   89.7222   12.1768 C.ar    1  UNL1        0.1655
      2 N          62.0981   88.7022   11.1181 N.ar    1  UNL1       -0.2239
      3 C          60.8138   88.3745   10.4157 C.ar    1  UNL1        0.0899
      4 C          59.7222   89.1920   11.0403 C.ar    1  UNL1        0.0572
      5 S          60.3318   90.0249   12.1287 S.2     1  UNL1       -0.0508
      6 C          60.6500   87.4003    9.2869 C.ar    1  UNL1        0.0225
      7 C          59.3336   87.2901    8.5764 C.ar    1  UNL1        0.0223
      8 C          59.1696   86.3161    7.4477 C.ar    1  UNL1        0.1003
      9 N          60.3223   85.4520    7.0293 N.ar    1  UNL1       -0.2296
     10 C          61.6388   85.5622    7.7398 C.ar    1  UNL1        0.1254
     11 N          62.7914   84.6982    7.3214 N.pl3   1  UNL1       -0.3426
     12 C          61.8026   86.5364    8.8686 C.ar    1  UNL1        0.0354
     13 H          62.6838   84.0589    6.5806 H       1  UNL1        0.1437
     14 H          63.6554   84.7705    7.7877 H       1  UNL1        0.1437
     15 C          63.8112   89.4651   13.8015 C.2     1  UNL1        0.2320
     16 O          63.8310   87.9876   13.5432 O.2     1  UNL1       -0.2744
     17 N          62.7958   90.3324   13.1182 N.am    1  UNL1       -0.2639
     18 H          62.7828   91.3021   13.2877 H       1  UNL1        0.1567
     19 C          64.8068   90.0752   14.7429 C.3     1  UNL1        0.1118
     20 C          66.0496   93.2068   12.6455 C.ar    1  UNL1        0.1384
     21 C          66.7982   93.9725   13.6959 C.ar    1  UNL1        0.0369
     22 C          66.8829   93.4391   15.0953 C.ar    1  UNL1        0.0028
     23 C          66.2192   92.1401   15.4443 C.ar    1  UNL1       -0.0036
     24 C          65.4707   91.3744   14.3939 C.ar    1  UNL1       -0.0101
     25 C          65.3859   91.9077   12.9945 C.ar    1  UNL1        0.0331
     26 C          65.9564   95.2209   11.0070 C.3     1  UNL1        0.2525
     27 O          65.9649   93.7401   11.2461 O.3     1  UNL1       -0.4714
@<TRIPOS>BOND
     1    26    27    1
     2    27    20    1
     3    20    21   ar
     4    21    22   ar
     5    22    23   ar
     6    23    24   ar
     7    24    19    1
     8    19    15    1
     9    15    16    2
    10    15    17   am
    11    17     1    1
    12     1     2   ar
    13     2     3   ar
    14     3     6    1
    15     6     7   ar
    16     7     8   ar
    17     8     9   ar
    18     9    10   ar
    19    10    11    1
    20    10    12   ar
    21     3     4   ar
    22     4     5   ar
    23    24    25   ar
    24    25    20   ar
    25     5     1   ar
    26    12     6   ar
    27    17    18    1
    28    11    13    1
    29    11    14    1
