@<TRIPOS>MOLECULE
*****
 57 63 0 0 0
SMALL
GASTEIGER

@<TRIPOS>ATOM
      1 N          65.3570   89.3575   14.6529 N.3     1  UNL1       -0.1862
      2 C          65.5483   88.1111   15.4652 C.3     1  UNL1        0.1775
      3 C          64.8217   86.8532   15.0912 C.2     1  UNL1        0.2452
      4 O          65.0131   85.6068   15.9036 O.2     1  UNL1       -0.2732
      5 N          63.9038   86.8417   13.9050 N.am    1  UNL1       -0.2541
      6 C          63.1772   85.5839   13.5311 C.3     1  UNL1        0.1577
      7 C          62.2592   85.5724   12.3449 C.2     1  UNL1        0.2445
      8 O          61.5326   84.3145   11.9709 O.2     1  UNL1       -0.2731
      9 N          62.0678   86.8188   11.5325 N.am    1  UNL1       -0.2705
     10 C          62.7944   88.0767   11.9064 C.3     1  UNL1        0.1359
     11 C          63.7124   88.0881   13.0927 C.3     1  UNL1        0.1908
     12 N          64.4390   89.3460   13.4667 N.am    1  UNL1       -0.1863
     13 C          64.2476   90.5924   12.6543 C.2     1  UNL1        0.3191
     14 O          63.3297   90.5809   11.4681 O.2     1  UNL1       -0.2512
     15 N          64.9742   91.8503   13.0282 N.am    1  UNL1       -0.2836
     16 H          65.5767   91.8578   13.8068 H       1  UNL1        0.1513
     17 C          66.0836   90.6153   15.0268 C.3     1  UNL1        0.1188
     18 C          68.0506   92.2425   14.5440 C.2     1  UNL1       -0.0034
     19 C          67.4734   90.8582   14.5177 C.2     1  UNL1       -0.0071
     20 C          63.3685   84.3375   14.3434 C.3     1  UNL1        0.0556
     21 C          63.1707   82.9920   13.7104 C.ar    1  UNL1       -0.0198
     22 C          62.1561   82.0408   14.2722 C.ar    1  UNL1       -0.0011
     23 C          61.9583   80.6953   13.6393 C.ar    1  UNL1        0.0363
     24 C          62.7752   80.3011   12.4446 C.ar    1  UNL1        0.1337
     25 O          62.5774   78.9556   11.8116 O.3     1  UNL1       -0.5055
     26 C          63.7898   81.2524   11.8827 C.ar    1  UNL1        0.0363
     27 C          63.9876   82.5978   12.5157 C.ar    1  UNL1       -0.0011
     28 H          61.9436   78.3614   12.1626 H       1  UNL1        0.2922
     29 C          61.1498   86.8074   10.3463 C.3     1  UNL1        0.1217
     30 C          60.5495   88.0893    9.8501 C.ar    1  UNL1        0.0135
     31 C          60.3531   89.2397   10.7925 C.ar    1  UNL1       -0.0012
     32 C          59.7528   90.5216   10.2963 C.ar    1  UNL1       -0.0002
     33 C          59.3488   90.6532    8.8578 C.ar    1  UNL1        0.0016
     34 C          59.5451   89.5028    7.9154 C.ar    1  UNL1        0.0214
     35 C          59.2456   89.3396    6.4547 C.ar    1  UNL1        0.0721
     36 C          59.6608   87.9567    6.0481 C.ar    1  UNL1        0.0805
     37 N          60.2170   87.2654    7.2575 N.ar    1  UNL1       -0.3241
     38 C          60.7509   85.8644    7.3046 C.3     1  UNL1        0.1305
     39 C          60.1455   88.2209    8.4115 C.ar    1  UNL1        0.0577
     40 C          58.6375   90.3771    5.5580 C.2     1  UNL1        0.2506
     41 O          57.1575   90.6191    5.5870 O.2     1  UNL1       -0.2699
     42 N          59.5096   91.1724    4.6323 N.am    1  UNL1       -0.2725
     43 C          58.9016   92.2099    3.7356 C.3     1  UNL1        0.1152
     44 C          59.7737   93.0053    2.8099 C.3     1  UNL1        0.1149
     45 N          61.2537   92.7632    2.7809 N.am    1  UNL1       -0.2760
     46 C          62.1258   93.5586    1.8552 C.2     1  UNL1        0.2262
     47 C          61.5177   94.5960    0.9585 C.3     1  UNL1        0.0948
     48 O          63.6058   93.3164    1.8262 O.2     1  UNL1       -0.2749
     49 C          61.8617   91.7257    3.6776 C.3     1  UNL1        0.1149
     50 C          60.9897   90.9303    4.6033 C.3     1  UNL1        0.1152
     51 C          64.7829   93.0967   12.2160 C.3     1  UNL1        0.1177
     52 C          65.8295   93.5149   11.2262 C.ar    1  UNL1       -0.0025
     53 C          66.7655   92.4952   10.6484 C.ar    1  UNL1       -0.0026
     54 C          67.8122   92.9134    9.6587 C.ar    1  UNL1       -0.0003
     55 C          67.9228   94.3515    9.2468 C.ar    1  UNL1       -0.0000
     56 C          66.9868   95.3713    9.8246 C.ar    1  UNL1       -0.0003
     57 C          65.9402   94.9531   10.8143 C.ar    1  UNL1       -0.0026
@<TRIPOS>BOND
     1    18    19    2
     2    19    17    1
     3    17     1    1
     4     1     2    1
     5     2     3    1
     6     3     4    2
     7     3     5   am
     8     5     6    1
     9     6    20    1
    10    20    21    1
    11    21    22   ar
    12    22    23   ar
    13    23    24   ar
    14    24    25    1
    15    24    26   ar
    16    26    27   ar
    17     6     7    1
    18     7     8    2
    19     7     9   am
    20     9    29    1
    21    29    30    1
    22    30    31   ar
    23    31    32   ar
    24    32    33   ar
    25    33    34   ar
    26    34    35   ar
    27    35    40    1
    28    40    41    2
    29    40    42   am
    30    42    43    1
    31    43    44    1
    32    44    45    1
    33    45    46   am
    34    46    47    1
    35    46    48    2
    36    45    49    1
    37    49    50    1
    38    35    36   ar
    39    36    37   ar
    40    37    38    1
    41    37    39   ar
    42     9    10    1
    43    11    10    1
    44    11    12    1
    45    12    13   am
    46    13    14    2
    47    13    15   am
    48    15    51    1
    49    51    52    1
    50    52    53   ar
    51    53    54   ar
    52    54    55   ar
    53    55    56   ar
    54    56    57   ar
    55    12     1    1
    56    57    52   ar
    57    11     5    1
    58    27    21   ar
    59    39    30   ar
    60    39    34   ar
    61    50    42    1
    62    25    28    1
    63    15    16    1
