@<TRIPOS>MOLECULE
*****
 44 48 0 0 0
SMALL
GASTEIGER

@<TRIPOS>ATOM
      1 N          61.6854   88.4418   11.2652 N.am    1  UNL1       -0.2769
      2 C          62.6948   87.3594   11.5090 C.2     1  UNL1        0.2294
      3 O          63.6144   87.4439   12.6910 O.2     1  UNL1       -0.2747
      4 C          62.7845   86.1924   10.5708 C.3     1  UNL1        0.1211
      5 C          62.9012   86.4249    9.0936 C.3     1  UNL1        0.0804
      6 N          62.9909   85.2580    8.1555 N.3     1  UNL1       -0.2969
      7 C          62.9641   83.8585    8.6946 C.3     1  UNL1        0.0714
      8 C          62.8474   83.6259   10.1719 C.3     1  UNL1        0.0490
      9 C          62.7577   84.7929   11.1100 C.3     1  UNL1        0.1224
     10 O          62.6597   85.8550   12.1647 O.3     1  UNL1       -0.3492
     11 C          62.5600   85.1760   13.4985 C.3     1  UNL1        0.1687
     12 C          62.5963   83.6941   13.2682 C.ar    1  UNL1        0.0079
     13 C          62.5339   82.5299   14.2118 C.ar    1  UNL1        0.0299
     14 C          62.5937   81.1288   13.6793 C.ar    1  UNL1        0.1671
     15 F          62.5313   79.9646   14.6229 F       1  UNL1       -0.2018
     16 C          62.7158   80.8921   12.2032 C.ar    1  UNL1        0.1671
     17 F          62.7756   79.4911   11.6707 F       1  UNL1       -0.2018
     18 C          62.7782   82.0564   11.2594 C.ar    1  UNL1        0.0297
     19 C          62.7185   83.4574   11.7919 C.ar    1  UNL1        0.0033
     20 H          63.8668   85.3592    7.6426 H       1  UNL1        0.1233
     21 C          60.7658   88.3573   10.0831 C.3     1  UNL1        0.0758
     22 C          60.2165   88.9503    8.8195 C.3     1  UNL1        0.0215
     23 C          59.7223   87.6178    9.2993 C.3     1  UNL1        0.0215
     24 C          61.5956   89.6088   12.2033 C.3     1  UNL1        0.1209
     25 C          64.6244   92.1012   11.5997 C.ar    1  UNL1       -0.0121
     26 C          65.2215   92.1599   12.9745 C.ar    1  UNL1       -0.0077
     27 C          64.6099   91.3683   14.0922 C.ar    1  UNL1       -0.0226
     28 C          63.4013   90.5179   13.8351 C.ar    1  UNL1       -0.0061
     29 C          62.8042   90.4591   12.4604 C.ar    1  UNL1        0.0076
     30 C          63.4158   91.2508   11.3426 C.ar    1  UNL1        0.0513
     31 CL         62.8187   91.1921    9.9678 Cl      1  UNL1       -0.0828
     32 C          65.2360   92.8928   10.4820 C.3     1  UNL1        0.0286
     33 C          65.5169   94.3549   10.6648 C.3     1  UNL1        0.0220
     34 C          66.9313   94.8542   10.6516 C.3     1  UNL1        0.0724
     35 N          67.8230   94.5507    9.4843 N.3     1  UNL1       -0.2727
     36 C          67.1926   96.7728    8.2947 C.3     1  UNL1        0.0188
     37 C          67.7260   95.3722    8.2329 C.3     1  UNL1        0.0721
     38 C          68.8116   93.4258    9.5682 C.3     1  UNL1        0.0721
     39 C          68.4633   92.0779    9.0097 C.3     1  UNL1        0.0188
     40 C          65.2070   91.4270   15.4671 C.3     1  UNL1        0.0289
     41 C          66.3369   92.3706   15.7544 C.3     1  UNL1        0.0367
     42 C          67.7562   91.9041   15.6202 C.3     1  UNL1        0.1426
     43 O          68.8599   92.6530   16.3066 O.3     1  UNL1       -0.3511
     44 C          69.1791   94.0602   15.8971 C.3     1  UNL1        0.1741
@<TRIPOS>BOND
     1    36    37    1
     2    37    35    1
     3    35    38    1
     4    38    39    1
     5    35    34    1
     6    34    33    1
     7    33    32    1
     8    32    25    1
     9    25    26   ar
    10    26    27   ar
    11    27    40    1
    12    40    41    1
    13    41    42    1
    14    42    43    1
    15    43    44    1
    16    27    28   ar
    17    28    29   ar
    18    29    24    1
    19    24     1    1
    20     1     2   am
    21     2     3    2
    22     4     2    1
    23     4     5    1
    24     5     6    1
    25     6     7    1
    26     7     8    1
    27     9     8    1
    28     9    10    1
    29    10    11    1
    30    11    12    1
    31    12    13   ar
    32    13    14   ar
    33    14    15    1
    34    14    16   ar
    35    16    17    1
    36    16    18   ar
    37    18    19   ar
    38     1    21    1
    39    21    22    1
    40    22    23    1
    41    29    30   ar
    42    30    31    1
    43    30    25   ar
    44     9     4    1
    45    19    12   ar
    46    23    21    1
    47    19     9    1
    48     6    20    1
@<TRIPOS>MOLECULE
*****
 44 48 0 0 0
SMALL
GASTEIGER

@<TRIPOS>ATOM
      1 N          61.3607   88.2788   10.8061 N.am    1  UNL1       -0.2769
      2 C          62.4483   87.2986   11.1322 C.2     1  UNL1        0.2294
      3 O          63.3390   87.5330   12.3161 O.2     1  UNL1       -0.2747
      4 C          62.6451   86.0839   10.2743 C.3     1  UNL1        0.1211
      5 C          62.8107   86.2322    8.7909 C.3     1  UNL1        0.0804
      6 N          63.0075   85.0175    7.9331 N.3     1  UNL1       -0.2969
      7 C          63.0387   83.6546    8.5587 C.3     1  UNL1        0.0714
      8 C          62.8731   83.5063   10.0421 C.3     1  UNL1        0.0490
      9 C          62.6763   84.7209   10.8999 C.3     1  UNL1        0.1224
     10 O          62.4725   85.8378   11.8804 O.3     1  UNL1       -0.3492
     11 C          62.3557   85.2369   13.2498 C.3     1  UNL1        0.1687
     12 C          62.4873   83.7486   13.1158 C.ar    1  UNL1        0.0079
     13 C          62.4523   82.6427   14.1284 C.ar    1  UNL1        0.0299
     14 C          62.6155   81.2178   13.6889 C.ar    1  UNL1        0.1671
     15 F          62.5806   80.1119   14.7015 F       1  UNL1       -0.2018
     16 C          62.8137   80.8990   12.2366 C.ar    1  UNL1        0.1671
     17 F          62.9769   79.4742   11.7970 F       1  UNL1       -0.2018
     18 C          62.8487   82.0050   11.2238 C.ar    1  UNL1        0.0297
     19 C          62.6855   83.4298   11.6634 C.ar    1  UNL1        0.0033
     20 H          63.8970   85.1398    7.4491 H       1  UNL1        0.1233
     21 C          60.4700   88.0444    9.6221 C.3     1  UNL1        0.0758
     22 C          59.9060   88.5025    8.3099 C.3     1  UNL1        0.0215
     23 C          59.4912   87.1802    8.8838 C.3     1  UNL1        0.0215
     24 C          61.1639   89.4935   11.6639 C.3     1  UNL1        0.1209
     25 C          64.4045   91.7682   11.9358 C.ar    1  UNL1       -0.0121
     26 C          64.7278   91.6279   13.3939 C.ar    1  UNL1       -0.0077
     27 C          63.8632   90.7761   14.2752 C.ar    1  UNL1       -0.0226
     28 C          62.6752   90.0646   13.6985 C.ar    1  UNL1       -0.0061
     29 C          62.3519   90.2049   12.2406 C.ar    1  UNL1        0.0076
     30 C          63.2165   91.0568   11.3591 C.ar    1  UNL1        0.0513
     31 CL         62.8932   91.1971    9.9012 Cl      1  UNL1       -0.0828
     32 C          65.2692   92.6200   11.0545 C.3     1  UNL1        0.0286
     33 C          66.2838   93.5415   11.6640 C.3     1  UNL1        0.0220
     34 C          66.8151   94.7003   10.8735 C.3     1  UNL1        0.0724
     35 N          67.6039   94.4553    9.6214 N.3     1  UNL1       -0.2727
     36 C          68.3959   92.0367    9.0984 C.3     1  UNL1        0.0188
     37 C          68.6866   93.4172    9.6082 C.3     1  UNL1        0.0721
     38 C          67.3101   95.2483    8.3826 C.3     1  UNL1        0.0721
     39 C          66.7394   96.6310    8.4950 C.3     1  UNL1        0.0188
     40 C          64.1865   90.6357   15.7332 C.3     1  UNL1        0.0289
     41 C          63.1572   90.0951   16.6810 C.3     1  UNL1        0.0367
     42 C          63.1919   88.6499   17.0812 C.3     1  UNL1        0.1426
     43 O          63.5100   87.5967   16.0616 O.3     1  UNL1       -0.3511
     44 C          63.5025   86.1484   16.4519 C.3     1  UNL1        0.1741
@<TRIPOS>BOND
     1    36    37    1
     2    37    35    1
     3    35    38    1
     4    38    39    1
     5    35    34    1
     6    34    33    1
     7    33    32    1
     8    32    25    1
     9    25    26   ar
    10    26    27   ar
    11    27    40    1
    12    40    41    1
    13    41    42    1
    14    42    43    1
    15    43    44    1
    16    27    28   ar
    17    28    29   ar
    18    29    24    1
    19    24     1    1
    20     1     2   am
    21     2     3    2
    22     4     2    1
    23     4     5    1
    24     5     6    1
    25     6     7    1
    26     7     8    1
    27     9     8    1
    28     9    10    1
    29    10    11    1
    30    11    12    1
    31    12    13   ar
    32    13    14   ar
    33    14    15    1
    34    14    16   ar
    35    16    17    1
    36    16    18   ar
    37    18    19   ar
    38     1    21    1
    39    21    22    1
    40    22    23    1
    41    29    30   ar
    42    30    31    1
    43    30    25   ar
    44     9     4    1
    45    19    12   ar
    46    23    21    1
    47    19     9    1
    48     6    20    1
@<TRIPOS>MOLECULE
*****
 44 48 0 0 0
SMALL
GASTEIGER

@<TRIPOS>ATOM
      1 N          61.6130   88.3388   11.1833 N.am    1  UNL1       -0.2769
      2 C          62.6306   87.2687   11.4467 C.2     1  UNL1        0.2294
      3 O          63.5205   87.3600   12.6507 O.2     1  UNL1       -0.2747
      4 C          62.7583   86.1072   10.5060 C.3     1  UNL1        0.1211
      5 C          62.8902   86.3475    9.0313 C.3     1  UNL1        0.0804
      6 N          63.0179   85.1861    8.0907 N.3     1  UNL1       -0.2969
      7 C          63.0137   83.7844    8.6249 C.3     1  UNL1        0.0714
      8 C          62.8818   83.5442   10.0996 C.3     1  UNL1        0.0490
      9 C          62.7542   84.7056   11.0402 C.3     1  UNL1        0.1224
     10 O          62.6189   85.7616   12.0970 O.3     1  UNL1       -0.3492
     11 C          62.5156   85.0758   13.4270 C.3     1  UNL1        0.1687
     12 C          62.5869   83.5959   13.1923 C.ar    1  UNL1        0.0079
     13 C          62.5366   82.4273   14.1312 C.ar    1  UNL1        0.0299
     14 C          62.6338   81.0297   13.5950 C.ar    1  UNL1        0.1671
     15 F          62.5835   79.8610   14.5339 F       1  UNL1       -0.2018
     16 C          62.7812   80.8009   12.1199 C.ar    1  UNL1        0.1671
     17 F          62.8784   79.4034   11.5837 F       1  UNL1       -0.2018
     18 C          62.8315   81.9696   11.1810 C.ar    1  UNL1        0.0297
     19 C          62.7343   83.3672   11.7171 C.ar    1  UNL1        0.0033
     20 H          63.8983   85.3079    7.5903 H       1  UNL1        0.1233
     21 C          60.7231   88.2474    9.9792 C.3     1  UNL1        0.0758
     22 C          60.1808   88.8478    8.7161 C.3     1  UNL1        0.0215
     23 C          59.7241   87.4887    9.1569 C.3     1  UNL1        0.0215
     24 C          61.4853   89.5002   12.1239 C.3     1  UNL1        0.1209
     25 C          64.3886   91.3329   14.1145 C.ar    1  UNL1       -0.0121
     26 C          65.0613   92.0858   13.0051 C.ar    1  UNL1       -0.0077
     27 C          64.5420   91.9768   11.6021 C.ar    1  UNL1       -0.0226
     28 C          63.3500   91.1149   11.3084 C.ar    1  UNL1       -0.0061
     29 C          62.6773   90.3620   12.4176 C.ar    1  UNL1        0.0076
     30 C          63.1966   90.4710   13.8207 C.ar    1  UNL1        0.0513
     31 CL         62.5238   89.7181   14.9300 Cl      1  UNL1       -0.0828
     32 C          64.9079   91.4418   15.5175 C.3     1  UNL1        0.0286
     33 C          65.7482   92.6184   15.9169 C.3     1  UNL1        0.0220
     34 C          67.1856   92.4191   16.2964 C.3     1  UNL1        0.0724
     35 N          68.2445   92.3896   15.2344 N.3     1  UNL1       -0.2727
     36 C          69.3719   94.5618   16.1066 C.3     1  UNL1        0.0188
     37 C          69.4572   93.2636   15.3600 C.3     1  UNL1        0.0721
     38 C          68.0909   91.4861   14.0470 C.3     1  UNL1        0.0721
     39 C          68.7495   91.8385   12.7462 C.3     1  UNL1        0.0188
     40 C          65.2148   92.7297   10.4928 C.3     1  UNL1        0.0289
     41 C          66.0233   93.9551   10.8006 C.3     1  UNL1        0.0367
     42 C          67.0998   94.4002    9.8556 C.3     1  UNL1        0.1426
     43 O          68.4113   93.6731    9.8165 O.3     1  UNL1       -0.3511
     44 C          68.5569   92.4333    8.9849 C.3     1  UNL1        0.1741
@<TRIPOS>BOND
     1    36    37    1
     2    37    35    1
     3    35    38    1
     4    38    39    1
     5    35    34    1
     6    34    33    1
     7    33    32    1
     8    32    25    1
     9    25    26   ar
    10    26    27   ar
    11    27    40    1
    12    40    41    1
    13    41    42    1
    14    42    43    1
    15    43    44    1
    16    27    28   ar
    17    28    29   ar
    18    29    24    1
    19    24     1    1
    20     1     2   am
    21     2     3    2
    22     4     2    1
    23     4     5    1
    24     5     6    1
    25     6     7    1
    26     7     8    1
    27     9     8    1
    28     9    10    1
    29    10    11    1
    30    11    12    1
    31    12    13   ar
    32    13    14   ar
    33    14    15    1
    34    14    16   ar
    35    16    17    1
    36    16    18   ar
    37    18    19   ar
    38     1    21    1
    39    21    22    1
    40    22    23    1
    41    29    30   ar
    42    30    31    1
    43    30    25   ar
    44     9     4    1
    45    19    12   ar
    46    23    21    1
    47    19     9    1
    48     6    20    1
@<TRIPOS>MOLECULE
*****
 44 48 0 0 0
SMALL
GASTEIGER

@<TRIPOS>ATOM
      1 N          61.3565   89.8242   11.2693 N.am    1  UNL1       -0.2769
      2 C          62.1957   89.1065   10.2541 C.2     1  UNL1        0.2294
      3 O          63.5181   89.6774    9.8355 O.2     1  UNL1       -0.2747
      4 C          61.7124   87.8179    9.6574 C.3     1  UNL1        0.1211
      5 C          60.9137   87.8323    8.3878 C.3     1  UNL1        0.0804
      6 N          60.4305   86.5437    7.7912 N.3     1  UNL1       -0.2969
      7 C          60.7459   85.2407    8.4642 C.3     1  UNL1        0.0714
      8 C          61.5446   85.2264    9.7337 C.3     1  UNL1        0.0490
      9 C          62.0279   86.5149   10.3303 C.3     1  UNL1        0.1224
     10 O          62.5758   87.7170   11.0410 O.3     1  UNL1       -0.3492
     11 C          63.3055   87.2410   12.2620 C.3     1  UNL1        0.1687
     12 C          63.2086   85.7448   12.3061 C.ar    1  UNL1        0.0079
     13 C          63.7373   84.7330   13.2790 C.ar    1  UNL1        0.0299
     14 C          63.4765   83.2724   13.0582 C.ar    1  UNL1        0.1671
     15 F          64.0052   82.2606   14.0311 F       1  UNL1       -0.2018
     16 C          62.6869   82.8237   11.8643 C.ar    1  UNL1        0.1671
     17 F          62.4261   81.3632   11.6434 F       1  UNL1       -0.2018
     18 C          62.1581   83.8355   10.8913 C.ar    1  UNL1        0.0297
     19 C          62.4190   85.2960   11.1122 C.ar    1  UNL1        0.0033
     20 H          60.8198   86.4908    6.8499 H       1  UNL1        0.1233
     21 C          60.0340   89.2532   11.6879 C.3     1  UNL1        0.0758
     22 C          58.8508   89.2567   12.6098 C.3     1  UNL1        0.0215
     23 C          58.9267   88.2608   11.4908 C.3     1  UNL1        0.0215
     24 C          61.8398   91.1127   11.8660 C.3     1  UNL1        0.1209
     25 C          65.4621   91.7201   13.3693 C.ar    1  UNL1       -0.0121
     26 C          65.3117   91.1042   14.7288 C.ar    1  UNL1       -0.0077
     27 C          64.0041   90.4913   15.1340 C.ar    1  UNL1       -0.0226
     28 C          62.8467   90.4941   14.1797 C.ar    1  UNL1       -0.0061
     29 C          62.9971   91.1099   12.8203 C.ar    1  UNL1        0.0076
     30 C          64.3048   91.7229   12.4150 C.ar    1  UNL1        0.0513
     31 CL         64.4552   92.3387   11.0555 Cl      1  UNL1       -0.0828
     32 C          66.7698   92.3330   12.9641 C.3     1  UNL1        0.0286
     33 C          66.9200   93.8251   12.9295 C.3     1  UNL1        0.0220
     34 C          66.2702   94.6192   11.8354 C.3     1  UNL1        0.0724
     35 N          66.9417   94.7456   10.5000 N.3     1  UNL1       -0.2727
     36 C          68.6161   93.1022    9.3838 C.3     1  UNL1        0.0188
     37 C          67.2054   93.5213    9.6743 C.3     1  UNL1        0.0721
     38 C          67.3494   96.0961    9.9904 C.3     1  UNL1        0.0721
     39 C          67.3699   96.3662    8.5151 C.3     1  UNL1        0.0188
     40 C          63.8537   89.8754   16.4935 C.3     1  UNL1        0.0289
     41 C          62.7015   88.9581   16.7780 C.3     1  UNL1        0.0367
     42 C          62.9443   87.6287   17.4288 C.3     1  UNL1        0.1426
     43 O          61.9361   86.5275   17.2841 O.3     1  UNL1       -0.3511
     44 C          62.2820   85.2910   16.5085 C.3     1  UNL1        0.1741
@<TRIPOS>BOND
     1    36    37    1
     2    37    35    1
     3    35    38    1
     4    38    39    1
     5    35    34    1
     6    34    33    1
     7    33    32    1
     8    32    25    1
     9    25    26   ar
    10    26    27   ar
    11    27    40    1
    12    40    41    1
    13    41    42    1
    14    42    43    1
    15    43    44    1
    16    27    28   ar
    17    28    29   ar
    18    29    24    1
    19    24     1    1
    20     1     2   am
    21     2     3    2
    22     4     2    1
    23     4     5    1
    24     5     6    1
    25     6     7    1
    26     7     8    1
    27     9     8    1
    28     9    10    1
    29    10    11    1
    30    11    12    1
    31    12    13   ar
    32    13    14   ar
    33    14    15    1
    34    14    16   ar
    35    16    17    1
    36    16    18   ar
    37    18    19   ar
    38     1    21    1
    39    21    22    1
    40    22    23    1
    41    29    30   ar
    42    30    31    1
    43    30    25   ar
    44     9     4    1
    45    19    12   ar
    46    23    21    1
    47    19     9    1
    48     6    20    1
