@<TRIPOS>MOLECULE
*****
 20 23 0 0 0
SMALL
GASTEIGER

@<TRIPOS>ATOM
      1 C          61.2277   87.3015    9.0598 C.3     1  UNL1        0.0262
      2 C          61.9040   88.0456   10.1728 C.2     1  UNL1       -0.0433
      3 C          62.0619   89.5341   10.2699 C.2     1  UNL1       -0.0034
      4 C          62.7966   89.8402   11.5414 C.3     1  UNL1        0.1590
      5 O          63.1697   91.2060   12.0370 O.3     1  UNL1       -0.3776
      6 C          63.0928   88.5410   12.2300 C.3     1  UNL1        0.1471
      7 O          63.5651   89.7877   12.9175 O.3     1  UNL1       -0.3554
      8 C          63.8203   88.4463   13.5383 C.3     1  UNL1        0.1220
      9 C          64.4921   89.2098   14.6410 C.3     1  UNL1        0.0323
     10 C          64.1759   87.2189   14.3239 C.3     1  UNL1        0.0776
     11 C          63.8917   85.7832   13.9954 C.3     1  UNL1        0.1898
     12 O          64.3038   84.6378   14.8717 O.3     1  UNL1       -0.4451
     13 C          63.8486   83.3669   14.2178 C.2     1  UNL1        0.3369
     14 O          64.0513   81.9794   14.7509 O.2     1  UNL1       -0.2453
     15 C          63.1551   83.7268   12.9374 C.2     1  UNL1        0.0492
     16 C          62.5426   82.7627   11.9653 C.3     1  UNL1        0.0373
     17 C          63.1818   85.2203   12.7999 C.2     1  UNL1       -0.0022
     18 C          62.5807   85.9539   11.6378 C.3     1  UNL1        0.0319
     19 C          62.5411   87.4318   11.3843 C.3     1  UNL1        0.0521
     20 H          62.8616   91.8745   11.4053 H       1  UNL1        0.2109
@<TRIPOS>BOND
     1     1     2    1
     2     2     3    2
     3     3     4    1
     4     4     5    1
     5     4     6    1
     6     6     7    1
     7     7     8    1
     8     8     9    1
     9     8    10    1
    10    11    10    1
    11    11    12    1
    12    12    13    1
    13    13    14    2
    14    13    15    1
    15    15    16    1
    16    15    17    2
    17    17    18    1
    18    19    18    1
    19    19     2    1
    20     8     6    1
    21    17    11    1
    22    19     6    1
    23     5    20    1
@<TRIPOS>MOLECULE
*****
 20 23 0 0 0
SMALL
GASTEIGER

@<TRIPOS>ATOM
      1 C          63.8179   90.8723   12.8046 C.3     1  UNL1        0.0262
      2 C          62.9892   90.1423   11.7896 C.2     1  UNL1       -0.0433
      3 C          62.2379   90.7666   10.6512 C.2     1  UNL1       -0.0034
      4 C          61.5507   89.6699    9.8927 C.3     1  UNL1        0.1590
      5 O          60.6883   89.8447    8.6779 O.3     1  UNL1       -0.3776
      6 C          61.8774   88.3681   10.5622 C.3     1  UNL1        0.1471
      7 O          60.9902   88.2975    9.3548 O.3     1  UNL1       -0.3554
      8 C          61.3658   87.0416   10.0838 C.3     1  UNL1        0.1220
      9 C          60.5323   86.3312    9.0588 C.3     1  UNL1        0.0323
     10 C          61.6169   85.6795   10.6597 C.3     1  UNL1        0.0776
     11 C          62.4416   85.3073   11.8561 C.3     1  UNL1        0.1898
     12 O          62.6151   83.8961   12.3336 O.3     1  UNL1       -0.4451
     13 C          63.4996   83.9220   13.5448 C.2     1  UNL1        0.3369
     14 O          63.9346   82.7297   14.3445 O.2     1  UNL1       -0.2453
     15 C          63.8728   85.3493   13.8158 C.2     1  UNL1        0.0492
     16 C          64.7465   85.8350   14.9342 C.3     1  UNL1        0.0373
     17 C          63.2189   86.2055   12.7722 C.2     1  UNL1       -0.0022
     18 C          63.3635   87.6976   12.7181 C.3     1  UNL1        0.0319
     19 C          62.7665   88.6599   11.7346 C.3     1  UNL1        0.0521
     20 H          60.6382   90.7861    8.4496 H       1  UNL1        0.2109
@<TRIPOS>BOND
     1     1     2    1
     2     2     3    2
     3     3     4    1
     4     4     5    1
     5     4     6    1
     6     6     7    1
     7     7     8    1
     8     8     9    1
     9     8    10    1
    10    11    10    1
    11    11    12    1
    12    12    13    1
    13    13    14    2
    14    13    15    1
    15    15    16    1
    16    15    17    2
    17    17    18    1
    18    19    18    1
    19    19     2    1
    20     8     6    1
    21    17    11    1
    22    19     6    1
    23     5    20    1
@<TRIPOS>MOLECULE
*****
 20 23 0 0 0
SMALL
GASTEIGER

@<TRIPOS>ATOM
      1 C          64.4741   89.1361   14.5885 C.3     1  UNL1        0.0262
      2 C          64.2856   87.6706   14.3305 C.2     1  UNL1       -0.0433
      3 C          64.8216   86.5509   15.1725 C.2     1  UNL1       -0.0034
      4 C          64.3951   85.2557   14.5474 C.3     1  UNL1        0.1590
      5 O          64.7126   83.8825   15.0607 O.3     1  UNL1       -0.3776
      6 C          63.5957   85.5749   13.3191 C.3     1  UNL1        0.1471
      7 O          63.7846   84.1214   13.6377 O.3     1  UNL1       -0.3554
      8 C          62.9978   84.5276   12.4270 C.3     1  UNL1        0.1220
      9 C          62.8213   83.0574   12.1873 C.3     1  UNL1        0.0323
     10 C          62.1846   84.7142   11.1805 C.3     1  UNL1        0.0776
     11 C          61.7683   85.9940   10.5181 C.3     1  UNL1        0.1898
     12 O          60.9481   86.0464    9.2635 O.3     1  UNL1       -0.4451
     13 C          60.7352   87.4882    8.9087 C.2     1  UNL1        0.3369
     14 O          59.9682   88.0012    7.7260 O.2     1  UNL1       -0.2453
     15 C          61.4240   88.3269    9.9441 C.2     1  UNL1        0.0492
     16 C          61.4667   89.8259    9.9786 C.3     1  UNL1        0.0373
     17 C          62.0625   87.4035   10.9388 C.2     1  UNL1       -0.0022
     18 C          62.8456   87.8812   12.1256 C.3     1  UNL1        0.0319
     19 C          63.5279   87.0674   13.1849 C.3     1  UNL1        0.0521
     20 H          65.2430   83.9543   15.8697 H       1  UNL1        0.2109
@<TRIPOS>BOND
     1     1     2    1
     2     2     3    2
     3     3     4    1
     4     4     5    1
     5     4     6    1
     6     6     7    1
     7     7     8    1
     8     8     9    1
     9     8    10    1
    10    11    10    1
    11    11    12    1
    12    12    13    1
    13    13    14    2
    14    13    15    1
    15    15    16    1
    16    15    17    2
    17    17    18    1
    18    19    18    1
    19    19     2    1
    20     8     6    1
    21    17    11    1
    22    19     6    1
    23     5    20    1
@<TRIPOS>MOLECULE
*****
 20 23 0 0 0
SMALL
GASTEIGER

@<TRIPOS>ATOM
      1 C          61.5361   85.9875    9.5508 C.3     1  UNL1        0.0262
      2 C          62.1435   85.4567   10.8153 C.2     1  UNL1       -0.0433
      3 C          62.1933   84.0168   11.2328 C.2     1  UNL1       -0.0034
      4 C          62.8884   83.9429   12.5600 C.3     1  UNL1        0.1590
      5 O          63.1566   82.6939   13.3464 O.3     1  UNL1       -0.3776
      6 C          63.2682   85.3369   12.9627 C.3     1  UNL1        0.1471
      7 O          63.6416   84.2386   13.9136 O.3     1  UNL1       -0.3554
      8 C          63.9844   85.6620   14.2400 C.3     1  UNL1        0.1220
      9 C          64.5861   85.1103   15.4985 C.3     1  UNL1        0.0323
     10 C          64.4171   87.0029   14.7544 C.3     1  UNL1        0.0776
     11 C          64.2405   88.3500   14.1187 C.3     1  UNL1        0.1898
     12 O          64.7226   89.6269   14.7407 O.3     1  UNL1       -0.4451
     13 C          64.3677   90.7549   13.8180 C.2     1  UNL1        0.3369
     14 O          64.6625   92.2077   14.0474 O.2     1  UNL1       -0.2453
     15 C          63.6661   90.1752   12.6256 C.2     1  UNL1        0.0492
     16 C          63.1363   90.9464   11.4533 C.3     1  UNL1        0.0373
     17 C          63.5876   88.6889   12.8115 C.2     1  UNL1       -0.0022
     18 C          62.9499   87.7643   11.8171 C.3     1  UNL1        0.0319
     19 C          62.8079   86.2726   11.8845 C.3     1  UNL1        0.0521
     20 H          62.8094   81.9274   12.8640 H       1  UNL1        0.2109
@<TRIPOS>BOND
     1     1     2    1
     2     2     3    2
     3     3     4    1
     4     4     5    1
     5     4     6    1
     6     6     7    1
     7     7     8    1
     8     8     9    1
     9     8    10    1
    10    11    10    1
    11    11    12    1
    12    12    13    1
    13    13    14    2
    14    13    15    1
    15    15    16    1
    16    15    17    2
    17    17    18    1
    18    19    18    1
    19    19     2    1
    20     8     6    1
    21    17    11    1
    22    19     6    1
    23     5    20    1
@<TRIPOS>MOLECULE
*****
 20 23 0 0 0
SMALL
GASTEIGER

@<TRIPOS>ATOM
      1 C          63.6448   91.0150   12.9878 C.3     1  UNL1        0.0262
      2 C          63.7277   89.5394   13.2438 C.2     1  UNL1       -0.0433
      3 C          64.4902   88.8786   14.3537 C.2     1  UNL1       -0.0034
      4 C          64.2962   87.3962   14.2307 C.3     1  UNL1        0.1590
      5 O          64.8819   86.3525   15.1349 O.3     1  UNL1       -0.3776
      6 C          63.4139   87.1409   13.0449 C.3     1  UNL1        0.1471
      7 O          63.8827   85.9354   13.8043 O.3     1  UNL1       -0.3554
      8 C          62.9970   85.7688   12.6053 C.3     1  UNL1        0.1220
      9 C          63.0930   84.2970   12.8791 C.3     1  UNL1        0.0323
     10 C          62.1255   85.3823   11.4472 C.3     1  UNL1        0.0776
     11 C          61.4559   86.2724   10.4426 C.3     1  UNL1        0.1898
     12 O          60.6025   85.7578    9.3216 O.3     1  UNL1       -0.4451
     13 C          60.1115   86.9363    8.5342 C.2     1  UNL1        0.3369
     14 O          59.2259   86.8813    7.3246 O.2     1  UNL1       -0.2453
     15 C          60.6614   88.1793    9.1686 C.2     1  UNL1        0.0492
     16 C          60.4223   89.5856    8.7049 C.3     1  UNL1        0.0373
     17 C          61.4923   87.7690   10.3480 C.2     1  UNL1       -0.0022
     18 C          62.2073   88.7451   11.2347 C.3     1  UNL1        0.0319
     19 C          63.0624   88.4655   12.4349 C.3     1  UNL1        0.0521
     20 H          65.4137   86.7823   15.8230 H       1  UNL1        0.2109
@<TRIPOS>BOND
     1     1     2    1
     2     2     3    2
     3     3     4    1
     4     4     5    1
     5     4     6    1
     6     6     7    1
     7     7     8    1
     8     8     9    1
     9     8    10    1
    10    11    10    1
    11    11    12    1
    12    12    13    1
    13    13    14    2
    14    13    15    1
    15    15    16    1
    16    15    17    2
    17    17    18    1
    18    19    18    1
    19    19     2    1
    20     8     6    1
    21    17    11    1
    22    19     6    1
    23     5    20    1
@<TRIPOS>MOLECULE
*****
 20 23 0 0 0
SMALL
GASTEIGER

@<TRIPOS>ATOM
      1 C          62.9608   84.2542   11.5778 C.3     1  UNL1        0.0262
      2 C          62.2952   85.3109   10.7471 C.2     1  UNL1       -0.0433
      3 C          61.4832   85.0766    9.5078 C.2     1  UNL1       -0.0034
      4 C          61.0108   86.4084    9.0045 C.3     1  UNL1        0.1590
      5 O          60.1666   86.6417    7.7868 O.3     1  UNL1       -0.3776
      6 C          61.5307   87.4657    9.9327 C.3     1  UNL1        0.1471
      7 O          60.7028   87.9378    8.7745 O.3     1  UNL1       -0.3554
      8 C          61.2616   88.9301    9.7507 C.3     1  UNL1        0.1220
      9 C          60.5882   89.9709    8.9061 C.3     1  UNL1        0.0323
     10 C          61.7199   90.0779   10.6008 C.3     1  UNL1        0.0776
     11 C          62.5604   90.0449   11.8428 C.3     1  UNL1        0.1898
     12 O          62.9531   91.2738   12.6077 O.3     1  UNL1       -0.4451
     13 C          63.7857   90.8443   13.7791 C.2     1  UNL1        0.3369
     14 O          64.3904   91.7503   14.8105 O.2     1  UNL1       -0.2453
     15 C          63.9076   89.3498   13.7382 C.2     1  UNL1        0.0492
     16 C          64.6554   88.4990   14.7213 C.3     1  UNL1        0.0373
     17 C          63.1502   88.8557   12.5414 C.2     1  UNL1       -0.0022
     18 C          63.0453   87.4060   12.1707 C.3     1  UNL1        0.0319
     19 C          62.3246   86.7875   11.0097 C.3     1  UNL1        0.0521
     20 H          59.9667   85.7918    7.3642 H       1  UNL1        0.2109
@<TRIPOS>BOND
     1     1     2    1
     2     2     3    2
     3     3     4    1
     4     4     5    1
     5     4     6    1
     6     6     7    1
     7     7     8    1
     8     8     9    1
     9     8    10    1
    10    11    10    1
    11    11    12    1
    12    12    13    1
    13    13    14    2
    14    13    15    1
    15    15    16    1
    16    15    17    2
    17    17    18    1
    18    19    18    1
    19    19     2    1
    20     8     6    1
    21    17    11    1
    22    19     6    1
    23     5    20    1
@<TRIPOS>MOLECULE
*****
 20 23 0 0 0
SMALL
GASTEIGER

@<TRIPOS>ATOM
      1 C          64.0847   86.5372   15.5197 C.3     1  UNL1        0.0262
      2 C          64.1174   85.4731   14.4631 C.2     1  UNL1       -0.0433
      3 C          64.7125   84.1039   14.6087 C.2     1  UNL1       -0.0034
      4 C          64.5237   83.3760   13.3108 C.3     1  UNL1        0.1590
      5 O          64.9686   81.9747   13.0131 O.3     1  UNL1       -0.3776
      6 C          63.8120   84.2952   12.3631 C.3     1  UNL1        0.1471
      7 O          64.1596   82.9324   11.8419 O.3     1  UNL1       -0.3554
      8 C          63.4472   83.9136   10.9590 C.3     1  UNL1        0.1220
      9 C          63.4906   82.8358    9.9166 C.3     1  UNL1        0.0323
     10 C          62.7413   84.7339    9.9204 C.3     1  UNL1        0.0776
     11 C          62.2257   86.1383   10.0291 C.3     1  UNL1        0.1898
     12 O          61.5313   86.8527    8.9079 O.3     1  UNL1       -0.4451
     13 C          61.1652   88.2254    9.3893 C.2     1  UNL1        0.3369
     14 O          60.4554   89.2792    8.5918 O.2     1  UNL1       -0.2453
     15 C          61.6333   88.3593   10.8081 C.2     1  UNL1        0.0492
     16 C          61.4740   89.5704   11.6785 C.3     1  UNL1        0.0373
     17 C          62.2888   87.0693   11.2035 C.2     1  UNL1       -0.0022
     18 C          62.8830   86.8260   12.5591 C.3     1  UNL1        0.0319
     19 C          63.5609   85.5914   13.0751 C.3     1  UNL1        0.0521
     20 H          65.4038   81.6007   13.7951 H       1  UNL1        0.2109
@<TRIPOS>BOND
     1     1     2    1
     2     2     3    2
     3     3     4    1
     4     4     5    1
     5     4     6    1
     6     6     7    1
     7     7     8    1
     8     8     9    1
     9     8    10    1
    10    11    10    1
    11    11    12    1
    12    12    13    1
    13    13    14    2
    14    13    15    1
    15    15    16    1
    16    15    17    2
    17    17    18    1
    18    19    18    1
    19    19     2    1
    20     8     6    1
    21    17    11    1
    22    19     6    1
    23     5    20    1
@<TRIPOS>MOLECULE
*****
 20 23 0 0 0
SMALL
GASTEIGER

@<TRIPOS>ATOM
      1 C          64.3411   89.3989   14.7009 C.3     1  UNL1        0.0262
      2 C          63.4418   89.1592   13.5246 C.2     1  UNL1       -0.0433
      3 C          62.6993   90.2101   12.7537 C.2     1  UNL1       -0.0034
      4 C          61.9257   89.5268   11.6654 C.3     1  UNL1        0.1590
      5 O          61.0427   90.1989   10.6560 O.3     1  UNL1       -0.3776
      6 C          62.1899   88.0536   11.7636 C.3     1  UNL1        0.1471
      7 O          61.2674   88.4981   10.6676 O.3     1  UNL1       -0.3554
      8 C          61.5850   87.0419   10.8360 C.3     1  UNL1        0.1220
      9 C          60.6817   86.8242    9.6583 C.3     1  UNL1        0.0323
     10 C          61.7676   85.5530   10.8284 C.3     1  UNL1        0.0776
     11 C          62.6003   84.7082   11.7464 C.3     1  UNL1        0.1898
     12 O          62.6997   83.2159   11.6330 O.3     1  UNL1       -0.4451
     13 C          63.6169   82.7289   12.7154 C.2     1  UNL1        0.3369
     14 O          63.9995   81.3010   12.9706 O.2     1  UNL1       -0.2453
     15 C          64.0843   83.9203   13.4978 C.2     1  UNL1        0.0492
     16 C          65.0164   83.8930   14.6727 C.3     1  UNL1        0.0373
     17 C          63.4560   85.1436   12.8989 C.2     1  UNL1       -0.0022
     18 C          63.6904   86.5313   13.4180 C.3     1  UNL1        0.0319
     19 C          63.1269   87.8263   12.9126 C.3     1  UNL1        0.0521
     20 H          61.0444   91.1563   10.8116 H       1  UNL1        0.2109
@<TRIPOS>BOND
     1     1     2    1
     2     2     3    2
     3     3     4    1
     4     4     5    1
     5     4     6    1
     6     6     7    1
     7     7     8    1
     8     8     9    1
     9     8    10    1
    10    11    10    1
    11    11    12    1
    12    12    13    1
    13    13    14    2
    14    13    15    1
    15    15    16    1
    16    15    17    2
    17    17    18    1
    18    19    18    1
    19    19     2    1
    20     8     6    1
    21    17    11    1
    22    19     6    1
    23     5    20    1
@<TRIPOS>MOLECULE
*****
 20 23 0 0 0
SMALL
GASTEIGER

@<TRIPOS>ATOM
      1 C          63.1089   84.8032   14.4092 C.3     1  UNL1        0.0262
      2 C          63.2722   84.4854   12.9524 C.2     1  UNL1       -0.0433
      3 C          63.9717   83.2861   12.3847 C.2     1  UNL1       -0.0034
      4 C          63.8965   83.3706   10.8889 C.3     1  UNL1        0.1590
      5 O          64.4671   82.3778    9.9200 O.3     1  UNL1       -0.3776
      6 C          63.1505   84.6221   10.5323 C.3     1  UNL1        0.1471
      7 O          63.6302   83.7780    9.3889 O.3     1  UNL1       -0.3554
      8 C          62.8759   85.0463    9.1200 C.3     1  UNL1        0.1220
      9 C          63.0503   84.7098    7.6686 C.3     1  UNL1        0.0323
     10 C          62.1476   86.2643    8.6342 C.3     1  UNL1        0.0776
     11 C          61.5140   87.3590    9.4406 C.3     1  UNL1        0.1898
     12 O          60.8093   88.5336    8.8296 O.3     1  UNL1       -0.4451
     13 C          60.3120   89.4065    9.9435 C.2     1  UNL1        0.3369
     14 O          59.5508   90.6895    9.7856 O.2     1  UNL1       -0.2453
     15 C          60.7094   88.7714   11.2430 C.2     1  UNL1        0.0492
     16 C          60.4155   89.3076   12.6126 C.3     1  UNL1        0.0373
     17 C          61.4523   87.5059   10.9322 C.2     1  UNL1       -0.0022
     18 C          62.0089   86.5945   11.9856 C.3     1  UNL1        0.0319
     19 C          62.7647   85.3111   11.8076 C.3     1  UNL1        0.0521
     20 H          64.8994   81.6604   10.4092 H       1  UNL1        0.2109
@<TRIPOS>BOND
     1     1     2    1
     2     2     3    2
     3     3     4    1
     4     4     5    1
     5     4     6    1
     6     6     7    1
     7     7     8    1
     8     8     9    1
     9     8    10    1
    10    11    10    1
    11    11    12    1
    12    12    13    1
    13    13    14    2
    14    13    15    1
    15    15    16    1
    16    15    17    2
    17    17    18    1
    18    19    18    1
    19    19     2    1
    20     8     6    1
    21    17    11    1
    22    19     6    1
    23     5    20    1
