@<TRIPOS>MOLECULE
*****
 45 46 0 0 0
SMALL
GASTEIGER

@<TRIPOS>ATOM
      1 C          62.4398   89.5194   12.5013 C.3     1  UNL1        0.1514
      2 C          62.8036   89.8489   11.0839 C.3     1  UNL1        0.0326
      3 C          62.1765   89.0892    9.9526 C.3     1  UNL1        0.0026
      4 C          60.7491   89.3514    9.5734 C.3     1  UNL1        0.0001
      5 C          59.8473   88.2088    9.2112 C.3     1  UNL1        0.0000
      6 C          60.1067   87.4141    7.9658 C.3     1  UNL1        0.0000
      7 C          60.5250   85.9770    8.0666 C.3     1  UNL1        0.0000
      8 C          61.9679   85.6024    7.9004 C.3     1  UNL1        0.0000
      9 C          62.8179   85.3375    9.1075 C.3     1  UNL1        0.0000
     10 C          62.2704   85.5914   10.4808 C.3     1  UNL1        0.0000
     11 C          62.4687   84.5759   11.5667 C.3     1  UNL1        0.0000
     12 C          63.8447   84.0618   11.8707 C.3     1  UNL1        0.0000
     13 C          64.2976   82.7496   11.3024 C.3     1  UNL1        0.0000
     14 C          63.2924   81.6819   10.9870 C.3     1  UNL1        0.0000
     15 C          62.7717   80.7958   12.0795 C.3     1  UNL1        0.0010
     16 C          63.0922   81.1041   13.5121 C.3     1  UNL1        0.0140
     17 C          62.0940   81.8299   14.3646 C.3     1  UNL1        0.0763
     18 C          62.4528   83.1494   14.9812 C.1     1  UNL1       -0.0832
     19 C          62.8117   84.4688   15.5978 C.1     1  UNL1        0.0088
     20 C          63.1705   85.7883   16.2144 C.3     1  UNL1        0.4589
     21 F          63.5294   87.1077   16.8310 F       1  UNL1       -0.1586
     22 F          61.9949   85.6758   17.1392 F       1  UNL1       -0.1586
     23 F          64.3461   85.9007   15.2896 F       1  UNL1       -0.1586
     24 O          63.5169   89.3399   13.5297 O.3     1  UNL1       -0.2926
     25 P          63.5558   90.2279   14.7379 P.3     1  UNL1        0.3697
     26 O          62.1855   89.7582   15.1273 O.2     1  UNL1       -0.2553
     27 O          63.5947   91.1160   15.9461 O.3     1  UNL1       -0.3218
     28 H          62.7676   91.0210   16.4440 H       1  UNL1        0.2198
     29 C          64.9261   90.6976   14.3485 C.3     1  UNL1        0.2579
     30 O          65.7176   91.5607   15.2858 O.3     1  UNL1       -0.3426
     31 C          68.0754   92.3356   16.0542 C.3     1  UNL1        0.0342
     32 C          67.1390   91.9133   14.9612 C.3     1  UNL1        0.1387
     33 C          67.6240   91.8436   13.5434 C.3     1  UNL1        0.1384
     34 N          67.1610   92.8595   12.5415 N.ar    1  UNL1       -0.2918
     35 C          66.2128   93.9910   12.8070 C.ar    1  UNL1        0.1798
     36 N          66.0308   94.7530   11.5279 N.ar    1  UNL1       -0.2195
     37 C          66.8664   94.0924   10.4718 C.ar    1  UNL1        0.1481
     38 C          67.0816   94.4052    9.0207 C.ar    1  UNL1        0.1480
     39 N          66.3830   95.5755    8.3942 N.pl3   1  UNL1       -0.3413
     40 N          67.9952   93.5479    8.1961 N.ar    1  UNL1       -0.2078
     41 C          68.6938   92.3776    8.8226 C.ar    1  UNL1        0.2015
     42 N          68.4786   92.0647   10.2737 N.ar    1  UNL1       -0.2048
     43 C          67.5650   92.9221   11.0983 C.ar    1  UNL1        0.1674
     44 H          65.7834   96.1383    8.9355 H       1  UNL1        0.1438
     45 H          66.5242   95.7809    7.4418 H       1  UNL1        0.1438
@<TRIPOS>BOND
     1    32    31    1
     2    32    33    1
     3    33    34    1
     4    34    35   ar
     5    35    36   ar
     6    36    37   ar
     7    37    38   ar
     8    38    39    1
     9    38    40   ar
    10    40    41   ar
    11    41    42   ar
    12    42    43   ar
    13    32    30    1
    14    30    29    1
    15    29    25    1
    16    25    26    2
    17    25    27    1
    18    25    24    1
    19    24     1    1
    20     1     2    1
    21     2     3    1
    22     3     4    1
    23     4     5    1
    24     5     6    1
    25     6     7    1
    26     7     8    1
    27     8     9    1
    28     9    10    1
    29    10    11    1
    30    11    12    1
    31    12    13    1
    32    13    14    1
    33    14    15    1
    34    15    16    1
    35    16    17    1
    36    17    18    1
    37    18    19    3
    38    19    20    1
    39    20    21    1
    40    20    22    1
    41    20    23    1
    42    43    34   ar
    43    43    37   ar
    44    39    44    1
    45    39    45    1
    46    27    28    1
@<TRIPOS>MOLECULE
*****
 45 46 0 0 0
SMALL
GASTEIGER

@<TRIPOS>ATOM
      1 C          64.1562   87.3535   15.0925 C.3     1  UNL1        0.1514
      2 C          64.4477   86.1106   14.3050 C.3     1  UNL1        0.0326
      3 C          63.3295   85.3654   13.6386 C.3     1  UNL1        0.0026
      4 C          62.9824   85.6554   12.2085 C.3     1  UNL1        0.0001
      5 C          61.9961   86.7368   11.8804 C.3     1  UNL1        0.0000
      6 C          62.4801   88.1141   11.5361 C.3     1  UNL1        0.0000
      7 C          62.4571   88.5829   10.1113 C.3     1  UNL1        0.0000
      8 C          61.3476   89.4713    9.6319 C.3     1  UNL1        0.0000
      9 C          59.9794   88.9029    9.3981 C.3     1  UNL1        0.0000
     10 C          59.7948   87.4196    9.2718 C.3     1  UNL1        0.0000
     11 C          59.8345   86.7714    7.9197 C.3     1  UNL1        0.0000
     12 C          60.9211   85.7917    7.5892 C.3     1  UNL1        0.0000
     13 C          62.2791   85.9407    8.2085 C.3     1  UNL1        0.0000
     14 C          63.1756   84.7460    8.3468 C.3     1  UNL1        0.0000
     15 C          63.2798   84.0349    9.6634 C.3     1  UNL1        0.0010
     16 C          64.4022   83.0704    9.9081 C.3     1  UNL1        0.0140
     17 C          64.6943   82.5973   11.3013 C.3     1  UNL1        0.0763
     18 C          63.5951   82.0210   12.1436 C.1     1  UNL1       -0.0832
     19 C          62.4958   81.4448   12.9860 C.1     1  UNL1        0.0088
     20 C          61.3966   80.8685   13.8283 C.3     1  UNL1        0.4589
     21 F          60.2974   80.2922   14.6707 F       1  UNL1       -0.1586
     22 F          61.1079   82.2315   14.3840 F       1  UNL1       -0.1586
     23 F          61.6853   79.5055   13.2727 F       1  UNL1       -0.1586
     24 O          64.3036   88.7006   14.4496 O.3     1  UNL1       -0.2926
     25 P          63.8107   89.9276   15.1578 P.3     1  UNL1        0.3697
     26 O          62.7417   89.1135   15.8244 O.2     1  UNL1       -0.2553
     27 O          63.3179   91.1547   15.8659 O.3     1  UNL1       -0.3218
     28 H          62.5599   90.9228   16.4250 H       1  UNL1        0.2198
     29 C          64.8797   90.7418   14.4911 C.3     1  UNL1        0.2579
     30 O          65.6552   91.7531   15.2821 O.3     1  UNL1       -0.3426
     31 C          68.0587   92.2480   16.1355 C.3     1  UNL1        0.0342
     32 C          67.1145   91.9630   15.0054 C.3     1  UNL1        0.1387
     33 C          67.6295   91.8879   13.5985 C.3     1  UNL1        0.1384
     34 N          67.1669   92.8834   12.5763 N.ar    1  UNL1       -0.2918
     35 C          66.2240   94.0242   12.8203 C.ar    1  UNL1        0.1798
     36 N          66.0403   94.7588   11.5255 N.ar    1  UNL1       -0.2195
     37 C          66.8697   94.0720   10.4812 C.ar    1  UNL1        0.1481
     38 C          67.0808   94.3522    9.0229 C.ar    1  UNL1        0.1480
     39 N          66.3845   95.5113    8.3734 N.pl3   1  UNL1       -0.3413
     40 N          67.9882   93.4734    8.2140 N.ar    1  UNL1       -0.2078
     41 C          68.6844   92.3144    8.8635 C.ar    1  UNL1        0.2015
     42 N          68.4733   92.0341   10.3218 N.ar    1  UNL1       -0.2048
     43 C          67.5659   92.9129   11.1307 C.ar    1  UNL1        0.1674
     44 H          65.7890   96.0881    8.9043 H       1  UNL1        0.1438
     45 H          66.5231   95.6952    7.4162 H       1  UNL1        0.1438
@<TRIPOS>BOND
     1    32    31    1
     2    32    33    1
     3    33    34    1
     4    34    35   ar
     5    35    36   ar
     6    36    37   ar
     7    37    38   ar
     8    38    39    1
     9    38    40   ar
    10    40    41   ar
    11    41    42   ar
    12    42    43   ar
    13    32    30    1
    14    30    29    1
    15    29    25    1
    16    25    26    2
    17    25    27    1
    18    25    24    1
    19    24     1    1
    20     1     2    1
    21     2     3    1
    22     3     4    1
    23     4     5    1
    24     5     6    1
    25     6     7    1
    26     7     8    1
    27     8     9    1
    28     9    10    1
    29    10    11    1
    30    11    12    1
    31    12    13    1
    32    13    14    1
    33    14    15    1
    34    15    16    1
    35    16    17    1
    36    17    18    1
    37    18    19    3
    38    19    20    1
    39    20    21    1
    40    20    22    1
    41    20    23    1
    42    43    34   ar
    43    43    37   ar
    44    39    44    1
    45    39    45    1
    46    27    28    1
@<TRIPOS>MOLECULE
*****
 45 46 0 0 0
SMALL
GASTEIGER

@<TRIPOS>ATOM
      1 C          59.9107   89.2811   10.0807 C.3     1  UNL1        0.1514
      2 C          60.1318   89.2600    8.5973 C.3     1  UNL1        0.0326
      3 C          59.5594   88.1478    7.7694 C.3     1  UNL1        0.0026
      4 C          59.6295   86.7330    8.2627 C.3     1  UNL1        0.0001
      5 C          60.5514   85.7525    7.6004 C.3     1  UNL1        0.0000
      6 C          61.9870   85.6670    8.0265 C.3     1  UNL1        0.0000
      7 C          62.4516   86.4020    9.2489 C.3     1  UNL1        0.0000
      8 C          62.4873   85.7034   10.5758 C.3     1  UNL1        0.0000
      9 C          62.4931   84.2045   10.6344 C.3     1  UNL1        0.0000
     10 C          63.7667   83.4495   10.3941 C.3     1  UNL1        0.0000
     11 C          64.1551   82.3242   11.3067 C.3     1  UNL1        0.0000
     12 C          63.2652   81.1238   11.4380 C.3     1  UNL1        0.0000
     13 C          62.4378   80.9352   12.6749 C.3     1  UNL1        0.0000
     14 C          62.9700   81.3728   14.0073 C.3     1  UNL1        0.0000
     15 C          62.8264   82.8019   14.4396 C.3     1  UNL1        0.0010
     16 C          64.0264   83.5655   14.9160 C.3     1  UNL1        0.0140
     17 C          64.5208   84.7480   14.1368 C.3     1  UNL1        0.0763
     18 C          64.3070   86.1360   14.6638 C.1     1  UNL1       -0.0832
     19 C          64.0932   87.5240   15.1908 C.1     1  UNL1        0.0088
     20 C          63.8794   88.9120   15.7178 C.3     1  UNL1        0.4589
     21 F          63.6656   90.3000   16.2448 F       1  UNL1       -0.1586
     22 F          64.7727   89.4576   14.6434 F       1  UNL1       -0.1586
     23 F          62.9862   88.3665   16.7923 F       1  UNL1       -0.1586
     24 O          60.9229   88.6626   10.9988 O.3     1  UNL1       -0.2926
     25 P          61.3116   89.3626   12.2672 P.3     1  UNL1        0.3697
     26 O          59.8637   89.5039   12.6329 O.2     1  UNL1       -0.2553
     27 O          61.7002   90.0625   13.5357 O.3     1  UNL1       -0.3218
     28 H          60.9013   90.2996   14.0321 H       1  UNL1        0.2198
     29 C          62.7594   89.2213   11.9016 C.3     1  UNL1        0.2579
     30 O          63.6981   90.3751   12.0956 O.3     1  UNL1       -0.3426
     31 C          63.1165   91.2487    9.7189 C.3     1  UNL1        0.0342
     32 C          63.8607   91.4000   11.0125 C.3     1  UNL1        0.1387
     33 C          64.7676   92.5762   11.2229 C.3     1  UNL1        0.1384
     34 N          66.0791   92.3953   11.9281 N.ar    1  UNL1       -0.2918
     35 C          67.4037   92.1361   11.2737 C.ar    1  UNL1        0.1798
     36 N          68.4394   92.0224   12.3527 N.ar    1  UNL1       -0.2195
     37 C          67.7550   92.2114   13.6740 C.ar    1  UNL1        0.1481
     38 C          68.2716   92.2034   15.0822 C.ar    1  UNL1        0.1480
     39 N          69.7304   91.9730   15.3446 N.pl3   1  UNL1       -0.3413
     40 N          67.3295   92.4259   16.2280 N.ar    1  UNL1       -0.2078
     41 C          65.8707   92.6563   15.9655 C.ar    1  UNL1        0.2015
     42 N          65.3541   92.6643   14.5574 N.ar    1  UNL1       -0.2048
     43 C          66.2962   92.4418   13.4116 C.ar    1  UNL1        0.1674
     44 H          70.3488   91.8270   14.5926 H       1  UNL1        0.1438
     45 H          70.0695   91.9677   16.2688 H       1  UNL1        0.1438
@<TRIPOS>BOND
     1    32    31    1
     2    32    33    1
     3    33    34    1
     4    34    35   ar
     5    35    36   ar
     6    36    37   ar
     7    37    38   ar
     8    38    39    1
     9    38    40   ar
    10    40    41   ar
    11    41    42   ar
    12    42    43   ar
    13    32    30    1
    14    30    29    1
    15    29    25    1
    16    25    26    2
    17    25    27    1
    18    25    24    1
    19    24     1    1
    20     1     2    1
    21     2     3    1
    22     3     4    1
    23     4     5    1
    24     5     6    1
    25     6     7    1
    26     7     8    1
    27     8     9    1
    28     9    10    1
    29    10    11    1
    30    11    12    1
    31    12    13    1
    32    13    14    1
    33    14    15    1
    34    15    16    1
    35    16    17    1
    36    17    18    1
    37    18    19    3
    38    19    20    1
    39    20    21    1
    40    20    22    1
    41    20    23    1
    42    43    34   ar
    43    43    37   ar
    44    39    44    1
    45    39    45    1
    46    27    28    1
@<TRIPOS>MOLECULE
*****
 45 46 0 0 0
SMALL
GASTEIGER

@<TRIPOS>ATOM
      1 C          60.1096   86.0193    7.8509 C.3     1  UNL1        0.1514
      2 C          61.3231   85.3893    7.2340 C.3     1  UNL1        0.0326
      3 C          62.6020   85.3039    8.0133 C.3     1  UNL1        0.0026
      4 C          62.6059   85.6027    9.4832 C.3     1  UNL1        0.0001
      5 C          63.0690   84.5618   10.4589 C.3     1  UNL1        0.0000
      6 C          64.0477   83.5107   10.0261 C.3     1  UNL1        0.0000
      7 C          63.9028   82.1019   10.5206 C.3     1  UNL1        0.0000
      8 C          62.6824   81.7006   11.2949 C.3     1  UNL1        0.0000
      9 C          62.7278   80.5054   12.2000 C.3     1  UNL1        0.0000
     10 C          62.7729   80.6923   13.6876 C.3     1  UNL1        0.0000
     11 C          61.9293   81.7493   14.3366 C.3     1  UNL1        0.0000
     12 C          62.5385   83.0660   14.7174 C.3     1  UNL1        0.0000
     13 C          64.0082   83.2961   14.5252 C.3     1  UNL1        0.0000
     14 C          64.4849   84.4688   13.7206 C.3     1  UNL1        0.0000
     15 C          63.8801   85.8240   13.9393 C.3     1  UNL1        0.0010
     16 C          64.4401   86.7340   14.9921 C.3     1  UNL1        0.0140
     17 C          64.3410   88.2216   14.8275 C.3     1  UNL1        0.0763
     18 C          63.8236   88.8015   13.5446 C.1     1  UNL1       -0.0832
     19 C          63.3062   89.3814   12.2616 C.1     1  UNL1        0.0088
     20 C          62.7889   89.9613   10.9786 C.3     1  UNL1        0.4589
     21 F          62.2715   90.5412    9.6956 F       1  UNL1       -0.1586
     22 F          62.7285   88.5866   10.3816 F       1  UNL1       -0.1586
     23 F          62.8492   91.3361   11.5756 F       1  UNL1       -0.1586
     24 O          59.4273   87.1644    7.1631 O.3     1  UNL1       -0.2926
     25 P          59.5905   88.5598    7.6887 P.3     1  UNL1        0.3697
     26 O          59.9237   88.0104    9.0441 O.2     1  UNL1       -0.2553
     27 O          59.7538   89.9552    8.2142 O.3     1  UNL1       -0.3218
     28 H          59.9921   89.9210    9.1539 H       1  UNL1        0.2198
     29 C          59.2574   89.1093    6.3333 C.3     1  UNL1        0.2579
     30 O          59.5079   90.5564    6.0282 O.3     1  UNL1       -0.3426
     31 C          57.1187   91.0448    5.1321 C.3     1  UNL1        0.0342
     32 C          58.5973   91.2942    5.0921 C.3     1  UNL1        0.1387
     33 C          59.1653   92.2814    4.1159 C.3     1  UNL1        0.1384
     34 N          60.5970   92.1689    3.6826 N.ar    1  UNL1       -0.2918
     35 C          61.6226   91.2393    4.2606 C.ar    1  UNL1        0.1798
     36 N          62.9138   91.4622    3.5305 N.ar    1  UNL1       -0.2195
     37 C          62.6862   92.5295    2.5014 C.ar    1  UNL1        0.1481
     38 C          63.5979   93.1600    1.4908 C.ar    1  UNL1        0.1480
     39 N          65.0298   92.7232    1.3968 N.pl3   1  UNL1       -0.3413
     40 N          63.0776   94.2273    0.5743 N.ar    1  UNL1       -0.2078
     41 C          61.6457   94.6641    0.6683 C.ar    1  UNL1        0.2015
     42 N          60.7340   94.0336    1.6788 N.ar    1  UNL1       -0.2048
     43 C          61.2543   92.9662    2.5954 C.ar    1  UNL1        0.1674
     44 H          65.3713   92.0227    1.9983 H       1  UNL1        0.1438
     45 H          65.6281   93.1371    0.7335 H       1  UNL1        0.1438
@<TRIPOS>BOND
     1    32    31    1
     2    32    33    1
     3    33    34    1
     4    34    35   ar
     5    35    36   ar
     6    36    37   ar
     7    37    38   ar
     8    38    39    1
     9    38    40   ar
    10    40    41   ar
    11    41    42   ar
    12    42    43   ar
    13    32    30    1
    14    30    29    1
    15    29    25    1
    16    25    26    2
    17    25    27    1
    18    25    24    1
    19    24     1    1
    20     1     2    1
    21     2     3    1
    22     3     4    1
    23     4     5    1
    24     5     6    1
    25     6     7    1
    26     7     8    1
    27     8     9    1
    28     9    10    1
    29    10    11    1
    30    11    12    1
    31    12    13    1
    32    13    14    1
    33    14    15    1
    34    15    16    1
    35    16    17    1
    36    17    18    1
    37    18    19    3
    38    19    20    1
    39    20    21    1
    40    20    22    1
    41    20    23    1
    42    43    34   ar
    43    43    37   ar
    44    39    44    1
    45    39    45    1
    46    27    28    1
@<TRIPOS>MOLECULE
*****
 45 46 0 0 0
SMALL
GASTEIGER

@<TRIPOS>ATOM
      1 C          62.5315   85.2287   12.7088 C.3     1  UNL1        0.1514
      2 C          61.7524   85.7902   11.5565 C.3     1  UNL1        0.0326
      3 C          61.6196   87.2754   11.3937 C.3     1  UNL1        0.0026
      4 C          60.2605   87.9099   11.3811 C.3     1  UNL1        0.0001
      5 C          60.1305   89.4042   11.3650 C.3     1  UNL1        0.0000
      6 C          60.0429   90.1354   10.0582 C.3     1  UNL1        0.0000
      7 C          60.6384   89.5328    8.8202 C.3     1  UNL1        0.0000
      8 C          59.7447   89.0520    7.7156 C.3     1  UNL1        0.0000
      9 C          59.0157   87.7484    7.8543 C.3     1  UNL1        0.0000
     10 C          59.7592   86.5139    8.2706 C.3     1  UNL1        0.0000
     11 C          60.2205   85.5314    7.2353 C.3     1  UNL1        0.0000
     12 C          61.6777   85.1964    7.1161 C.3     1  UNL1        0.0000
     13 C          62.6146   85.5115    8.2443 C.3     1  UNL1        0.0000
     14 C          63.6985   84.5420    8.6122 C.3     1  UNL1        0.0000
     15 C          63.4906   83.5783    9.7427 C.3     1  UNL1        0.0010
     16 C          64.6385   82.7548   10.2469 C.3     1  UNL1        0.0140
     17 C          64.7475   82.4353   11.7083 C.3     1  UNL1        0.0763
     18 C          63.5658   81.8768   12.4442 C.1     1  UNL1       -0.0832
     19 C          62.3840   81.3184   13.1801 C.1     1  UNL1        0.0088
     20 C          61.2022   80.7599   13.9160 C.3     1  UNL1        0.4589
     21 F          60.0205   80.2015   14.6519 F       1  UNL1       -0.1586
     22 F          61.4242   79.4284   13.2620 F       1  UNL1       -0.1586
     23 F          60.9802   82.0915   14.5700 F       1  UNL1       -0.1586
     24 O          63.5751   86.0656   13.3874 O.3     1  UNL1       -0.2926
     25 P          64.0638   85.6914   14.7553 P.3     1  UNL1        0.3697
     26 O          63.3830   84.3603   14.6344 O.2     1  UNL1       -0.2553
     27 O          64.5524   85.3173   16.1232 O.3     1  UNL1       -0.3218
     28 H          64.2427   84.4250   16.3443 H       1  UNL1        0.2198
     29 C          64.7446   87.0225   14.8762 C.3     1  UNL1        0.2579
     30 O          63.9601   88.2864   14.6836 O.3     1  UNL1       -0.3426
     31 C          63.0397   88.3825   17.1113 C.3     1  UNL1        0.0342
     32 C          63.5184   89.0839   15.8748 C.3     1  UNL1        0.1387
     33 C          63.5553   90.5828   15.8295 C.3     1  UNL1        0.1384
     34 N          64.5392   91.2822   14.9392 N.ar    1  UNL1       -0.2918
     35 C          65.8093   91.9475   15.3800 C.ar    1  UNL1        0.1798
     36 N          66.4808   92.5156   14.1650 N.ar    1  UNL1       -0.2195
     37 C          65.6258   92.2014   12.9732 C.ar    1  UNL1        0.1481
     38 C          65.7849   92.5110   11.5142 C.ar    1  UNL1        0.1480
     39 N          66.9849   93.2732   11.0357 N.pl3   1  UNL1       -0.3413
     40 N          64.7439   92.0583   10.5337 N.ar    1  UNL1       -0.2078
     41 C          63.5439   91.2960   11.0122 C.ar    1  UNL1        0.2015
     42 N          63.3849   90.9865   12.4712 N.ar    1  UNL1       -0.2048
     43 C          64.4258   91.4392   13.4517 C.ar    1  UNL1        0.1674
     44 H          67.6681   93.5704   11.6793 H       1  UNL1        0.1438
     45 H          67.0893   93.4764   10.0780 H       1  UNL1        0.1438
@<TRIPOS>BOND
     1    32    31    1
     2    32    33    1
     3    33    34    1
     4    34    35   ar
     5    35    36   ar
     6    36    37   ar
     7    37    38   ar
     8    38    39    1
     9    38    40   ar
    10    40    41   ar
    11    41    42   ar
    12    42    43   ar
    13    32    30    1
    14    30    29    1
    15    29    25    1
    16    25    26    2
    17    25    27    1
    18    25    24    1
    19    24     1    1
    20     1     2    1
    21     2     3    1
    22     3     4    1
    23     4     5    1
    24     5     6    1
    25     6     7    1
    26     7     8    1
    27     8     9    1
    28     9    10    1
    29    10    11    1
    30    11    12    1
    31    12    13    1
    32    13    14    1
    33    14    15    1
    34    15    16    1
    35    16    17    1
    36    17    18    1
    37    18    19    3
    38    19    20    1
    39    20    21    1
    40    20    22    1
    41    20    23    1
    42    43    34   ar
    43    43    37   ar
    44    39    44    1
    45    39    45    1
    46    27    28    1
@<TRIPOS>MOLECULE
*****
 45 46 0 0 0
SMALL
GASTEIGER

@<TRIPOS>ATOM
      1 C          64.1544   83.0531   14.5171 C.3     1  UNL1        0.1514
      2 C          64.6384   84.3448   13.9278 C.3     1  UNL1        0.0326
      3 C          64.3561   85.6409   14.6281 C.3     1  UNL1        0.0026
      4 C          64.1916   85.6676   16.1188 C.3     1  UNL1        0.0001
      5 C          62.8207   85.5978   16.7235 C.3     1  UNL1        0.0000
      6 C          62.3234   86.7198   17.5860 C.3     1  UNL1        0.0000
      7 C          63.0277   88.0442   17.5737 C.3     1  UNL1        0.0000
      8 C          62.6657   89.0766   16.5476 C.3     1  UNL1        0.0000
      9 C          63.4404   90.3586   16.4678 C.3     1  UNL1        0.0000
     10 C          64.3312   90.6246   15.2906 C.3     1  UNL1        0.0000
     11 C          64.5866   89.5425   14.2837 C.3     1  UNL1        0.0000
     12 C          63.8591   89.5516   12.9720 C.3     1  UNL1        0.0000
     13 C          63.1639   90.7973   12.5086 C.3     1  UNL1        0.0000
     14 C          63.0270   91.0783   11.0415 C.3     1  UNL1        0.0000
     15 C          64.2016   91.5931   10.2636 C.3     1  UNL1        0.0010
     16 C          64.9695   92.7809   10.7631 C.3     1  UNL1        0.0140
     17 C          66.4242   92.6449   11.1027 C.3     1  UNL1        0.0763
     18 C          66.8534   92.5424   12.5363 C.1     1  UNL1       -0.0832
     19 C          67.2826   92.4399   13.9699 C.1     1  UNL1        0.0088
     20 C          67.7118   92.3375   15.4035 C.3     1  UNL1        0.4589
     21 F          68.1410   92.2350   16.8372 F       1  UNL1       -0.1586
     22 F          67.7617   93.8338   15.4955 F       1  UNL1       -0.1586
     23 F          67.6618   90.8412   15.3116 F       1  UNL1       -0.1586
     24 O          64.1017   81.8157   13.6708 O.3     1  UNL1       -0.2926
     25 P          62.8385   81.0101   13.5980 P.3     1  UNL1        0.3697
     26 O          63.4549   79.9641   14.4790 O.2     1  UNL1       -0.2553
     27 O          61.5754   80.2044   13.5253 O.3     1  UNL1       -0.3218
     28 H          61.6789   79.3930   14.0467 H       1  UNL1        0.2198
     29 C          62.2222   82.0560   12.7171 C.3     1  UNL1        0.2579
     30 O          62.6772   82.2023   11.2953 O.3     1  UNL1       -0.3426
     31 C          64.2986   83.6441    9.8663 C.3     1  UNL1        0.0342
     32 C          63.1149   83.5420   10.7819 C.3     1  UNL1        0.1387
     33 C          62.3689   84.7797   11.1842 C.3     1  UNL1        0.1384
     34 N          61.8578   85.7217   10.1347 N.ar    1  UNL1       -0.2918
     35 C          61.9503   85.5227    8.6508 C.ar    1  UNL1        0.1798
     36 N          61.3142   86.7061    7.9839 N.ar    1  UNL1       -0.2195
     37 C          60.8287   87.6366    9.0556 C.ar    1  UNL1        0.1481
     38 C          60.1240   88.9593    8.9927 C.ar    1  UNL1        0.1480
     39 N          59.7880   89.5677    7.6635 N.pl3   1  UNL1       -0.3413
     40 N          59.7553   89.6735   10.2592 N.ar    1  UNL1       -0.2078
     41 C          60.0913   89.0651   11.5884 C.ar    1  UNL1        0.2015
     42 N          60.7959   87.7424   11.6513 N.ar    1  UNL1       -0.2048
     43 C          61.1646   87.0282   10.3848 C.ar    1  UNL1        0.1674
     44 H          60.0300   89.0989    6.8323 H       1  UNL1        0.1438
     45 H          59.3255   90.4358    7.6223 H       1  UNL1        0.1438
@<TRIPOS>BOND
     1    32    31    1
     2    32    33    1
     3    33    34    1
     4    34    35   ar
     5    35    36   ar
     6    36    37   ar
     7    37    38   ar
     8    38    39    1
     9    38    40   ar
    10    40    41   ar
    11    41    42   ar
    12    42    43   ar
    13    32    30    1
    14    30    29    1
    15    29    25    1
    16    25    26    2
    17    25    27    1
    18    25    24    1
    19    24     1    1
    20     1     2    1
    21     2     3    1
    22     3     4    1
    23     4     5    1
    24     5     6    1
    25     6     7    1
    26     7     8    1
    27     8     9    1
    28     9    10    1
    29    10    11    1
    30    11    12    1
    31    12    13    1
    32    13    14    1
    33    14    15    1
    34    15    16    1
    35    16    17    1
    36    17    18    1
    37    18    19    3
    38    19    20    1
    39    20    21    1
    40    20    22    1
    41    20    23    1
    42    43    34   ar
    43    43    37   ar
    44    39    44    1
    45    39    45    1
    46    27    28    1
@<TRIPOS>MOLECULE
*****
 45 46 0 0 0
SMALL
GASTEIGER

@<TRIPOS>ATOM
      1 C          62.3799   84.9683   12.9459 C.3     1  UNL1        0.1514
      2 C          62.0278   85.6509   11.6575 C.3     1  UNL1        0.0326
      3 C          61.9771   87.1486   11.5917 C.3     1  UNL1        0.0026
      4 C          62.4651   87.8624   10.3660 C.3     1  UNL1        0.0001
      5 C          62.5078   89.3615   10.3381 C.3     1  UNL1        0.0000
      6 C          61.2387   90.1506   10.4678 C.3     1  UNL1        0.0000
      7 C          60.0642   89.8316    9.5908 C.3     1  UNL1        0.0000
      8 C          60.2591   89.6428    8.1156 C.3     1  UNL1        0.0000
      9 C          59.3000   88.7940    7.3348 C.3     1  UNL1        0.0000
     10 C          58.6503   87.6071    7.9823 C.3     1  UNL1        0.0000
     11 C          59.1982   86.2308    7.7466 C.3     1  UNL1        0.0000
     12 C          60.6813   86.0075    7.7254 C.3     1  UNL1        0.0000
     13 C          61.2713   84.9741    6.8123 C.3     1  UNL1        0.0000
     14 C          62.7063   84.5665    6.9686 C.3     1  UNL1        0.0000
     15 C          63.5360   85.1510    8.0731 C.3     1  UNL1        0.0010
     16 C          63.4981   84.5409    9.4429 C.3     1  UNL1        0.0140
     17 C          64.1025   83.1885    9.6785 C.3     1  UNL1        0.0763
     18 C          63.5179   82.2760   10.7157 C.1     1  UNL1       -0.0832
     19 C          62.9333   81.3636   11.7529 C.1     1  UNL1        0.0088
     20 C          62.3487   80.4512   12.7901 C.3     1  UNL1        0.4589
     21 F          61.7641   79.5388   13.8272 F       1  UNL1       -0.1586
     22 F          62.6647   79.2665   11.9260 F       1  UNL1       -0.1586
     23 F          62.0327   81.6359   13.6541 F       1  UNL1       -0.1586
     24 O          63.1568   85.7045   13.9968 O.3     1  UNL1       -0.2926
     25 P          64.5237   85.2286   14.3903 P.3     1  UNL1        0.3697
     26 O          64.2187   83.8772   13.8152 O.2     1  UNL1       -0.2553
     27 O          65.8907   84.7526   14.7837 O.3     1  UNL1       -0.3218
     28 H          65.9994   83.8261   14.5179 H       1  UNL1        0.2198
     29 C          64.8287   86.5800   14.9653 C.3     1  UNL1        0.2579
     30 O          63.8435   87.7004   14.8113 O.3     1  UNL1       -0.3426
     31 C          62.9492   87.7773   17.2494 C.3     1  UNL1        0.0342
     32 C          63.4101   88.4885   16.0117 C.3     1  UNL1        0.1387
     33 C          63.4375   89.9879   15.9745 C.3     1  UNL1        0.1384
     34 N          64.0394   90.6980   14.7983 N.ar    1  UNL1       -0.2918
     35 C          63.5680   90.6062   13.3773 C.ar    1  UNL1        0.1798
     36 N          64.4557   91.4761   12.5374 N.ar    1  UNL1       -0.2195
     37 C          65.4757   92.1055   13.4394 C.ar    1  UNL1        0.1481
     38 C          66.6054   93.0544   13.1688 C.ar    1  UNL1        0.1480
     39 N          66.8627   93.5353   11.7715 N.pl3   1  UNL1       -0.3413
     40 N          67.4779   93.5223   14.2956 N.ar    1  UNL1       -0.2078
     41 C          67.2207   93.0414   15.6930 C.ar    1  UNL1        0.2015
     42 N          66.0909   92.0926   15.9635 N.ar    1  UNL1       -0.2048
     43 C          65.2184   91.6246   14.8367 C.ar    1  UNL1        0.1674
     44 H          66.2900   93.2281   11.0320 H       1  UNL1        0.1438
     45 H          67.6042   94.1581   11.5940 H       1  UNL1        0.1438
@<TRIPOS>BOND
     1    32    31    1
     2    32    33    1
     3    33    34    1
     4    34    35   ar
     5    35    36   ar
     6    36    37   ar
     7    37    38   ar
     8    38    39    1
     9    38    40   ar
    10    40    41   ar
    11    41    42   ar
    12    42    43   ar
    13    32    30    1
    14    30    29    1
    15    29    25    1
    16    25    26    2
    17    25    27    1
    18    25    24    1
    19    24     1    1
    20     1     2    1
    21     2     3    1
    22     3     4    1
    23     4     5    1
    24     5     6    1
    25     6     7    1
    26     7     8    1
    27     8     9    1
    28     9    10    1
    29    10    11    1
    30    11    12    1
    31    12    13    1
    32    13    14    1
    33    14    15    1
    34    15    16    1
    35    16    17    1
    36    17    18    1
    37    18    19    3
    38    19    20    1
    39    20    21    1
    40    20    22    1
    41    20    23    1
    42    43    34   ar
    43    43    37   ar
    44    39    44    1
    45    39    45    1
    46    27    28    1
@<TRIPOS>MOLECULE
*****
 45 46 0 0 0
SMALL
GASTEIGER

@<TRIPOS>ATOM
      1 C          62.2985   83.1587   14.8987 C.3     1  UNL1        0.1514
      2 C          62.8259   84.3899   15.5740 C.3     1  UNL1        0.0326
      3 C          64.2645   84.7798   15.4055 C.3     1  UNL1        0.0026
      4 C          64.6274   85.9551   14.5469 C.3     1  UNL1        0.0001
      5 C          64.3498   87.3488   15.0270 C.3     1  UNL1        0.0000
      6 C          64.2243   88.4711   14.0397 C.3     1  UNL1        0.0000
      7 C          64.2872   89.8942   14.5099 C.3     1  UNL1        0.0000
      8 C          63.9201   91.0094   13.5763 C.3     1  UNL1        0.0000
      9 C          63.2243   90.7062   12.2825 C.3     1  UNL1        0.0000
     10 C          63.6973   91.3428   11.0094 C.3     1  UNL1        0.0000
     11 C          64.9488   92.1696   11.0042 C.3     1  UNL1        0.0000
     12 C          64.9528   93.5201   10.3513 C.3     1  UNL1        0.0000
     13 C          66.0774   94.4771   10.6144 C.3     1  UNL1        0.0000
     14 C          67.0463   94.8149    9.5204 C.3     1  UNL1        0.0000
     15 C          68.2670   93.9686    9.3119 C.3     1  UNL1        0.0010
     16 C          68.1616   92.4734    9.3687 C.3     1  UNL1        0.0140
     17 C          68.7059   91.7275   10.5508 C.3     1  UNL1        0.0763
     18 C          68.1344   91.9669   11.9168 C.1     1  UNL1       -0.0832
     19 C          67.5630   92.2063   13.2829 C.1     1  UNL1        0.0088
     20 C          66.9915   92.4458   14.6489 C.3     1  UNL1        0.4589
     21 F          66.4200   92.6852   16.0149 F       1  UNL1       -0.1586
     22 F          66.3425   93.7053   14.1566 F       1  UNL1       -0.1586
     23 F          67.6405   91.1863   15.1412 F       1  UNL1       -0.1586
     24 O          63.1637   81.9392   14.7805 O.3     1  UNL1       -0.2926
     25 P          62.9315   80.9597   13.6684 P.3     1  UNL1        0.3697
     26 O          63.8563   79.9844   14.3343 O.2     1  UNL1       -0.2553
     27 O          62.6993   79.9803   12.5563 O.3     1  UNL1       -0.3218
     28 H          63.2131   79.1745   12.7226 H       1  UNL1        0.2198
     29 C          62.0067   81.9351   13.0025 C.3     1  UNL1        0.2579
     30 O          62.2582   82.3599   11.5861 O.3     1  UNL1       -0.3426
     31 C          64.6023   83.1725   10.8149 C.3     1  UNL1        0.0342
     32 C          63.2152   83.4782   11.2971 C.3     1  UNL1        0.1387
     33 C          62.7851   84.9023   11.4902 C.3     1  UNL1        0.1384
     34 N          62.1608   85.6577   10.3546 N.ar    1  UNL1       -0.2918
     35 C          62.2110   85.2722    8.9059 C.ar    1  UNL1        0.1798
     36 N          61.4579   86.3076    8.1244 N.ar    1  UNL1       -0.2195
     37 C          60.9423   87.3330    9.0901 C.ar    1  UNL1        0.1481
     38 C          60.1333   88.5806    8.8924 C.ar    1  UNL1        0.1480
     39 N          59.6989   88.9822    7.5140 N.pl3   1  UNL1       -0.3413
     40 N          59.7588   89.4265   10.0731 N.ar    1  UNL1       -0.2078
     41 C          60.1932   89.0249   11.4514 C.ar    1  UNL1        0.2015
     42 N          61.0022   87.7773   11.6492 N.ar    1  UNL1       -0.2048
     43 C          61.3767   86.9314   10.4685 C.ar    1  UNL1        0.1674
     44 H          59.9447   88.4270    6.7390 H       1  UNL1        0.1438
     45 H          59.1679   89.8011    7.3842 H       1  UNL1        0.1438
@<TRIPOS>BOND
     1    32    31    1
     2    32    33    1
     3    33    34    1
     4    34    35   ar
     5    35    36   ar
     6    36    37   ar
     7    37    38   ar
     8    38    39    1
     9    38    40   ar
    10    40    41   ar
    11    41    42   ar
    12    42    43   ar
    13    32    30    1
    14    30    29    1
    15    29    25    1
    16    25    26    2
    17    25    27    1
    18    25    24    1
    19    24     1    1
    20     1     2    1
    21     2     3    1
    22     3     4    1
    23     4     5    1
    24     5     6    1
    25     6     7    1
    26     7     8    1
    27     8     9    1
    28     9    10    1
    29    10    11    1
    30    11    12    1
    31    12    13    1
    32    13    14    1
    33    14    15    1
    34    15    16    1
    35    16    17    1
    36    17    18    1
    37    18    19    3
    38    19    20    1
    39    20    21    1
    40    20    22    1
    41    20    23    1
    42    43    34   ar
    43    43    37   ar
    44    39    44    1
    45    39    45    1
    46    27    28    1
@<TRIPOS>MOLECULE
*****
 45 46 0 0 0
SMALL
GASTEIGER

@<TRIPOS>ATOM
      1 C          63.7278   81.8313   11.2957 C.3     1  UNL1        0.1514
      2 C          63.6889   83.3149   11.0782 C.3     1  UNL1        0.0326
      3 C          62.4465   84.0887   11.4060 C.3     1  UNL1        0.0026
      4 C          62.5057   85.5817   11.5380 C.3     1  UNL1        0.0001
      5 C          61.8299   86.4521   10.5203 C.3     1  UNL1        0.0000
      6 C          62.3181   86.4655    9.1020 C.3     1  UNL1        0.0000
      7 C          61.7020   85.5477    8.0880 C.3     1  UNL1        0.0000
      8 C          60.3646   85.8765    7.4936 C.3     1  UNL1        0.0000
      9 C          59.4827   86.8972    8.1495 C.3     1  UNL1        0.0000
     10 C          59.4532   88.3054    7.6337 C.3     1  UNL1        0.0000
     11 C          60.0937   89.4074    8.4245 C.3     1  UNL1        0.0000
     12 C          60.0739   89.3638    9.9238 C.3     1  UNL1        0.0000
     13 C          61.0022   90.2396   10.7119 C.3     1  UNL1        0.0000
     14 C          62.4492   90.3355   10.3285 C.3     1  UNL1        0.0000
     15 C          63.3535   91.2929   11.0466 C.3     1  UNL1        0.0010
     16 C          64.5266   91.8957   10.3322 C.3     1  UNL1        0.0140
     17 C          65.3038   93.0077   10.9720 C.3     1  UNL1        0.0763
     18 C          65.9026   92.8173   12.3340 C.1     1  UNL1       -0.0832
     19 C          66.5015   92.6269   13.6960 C.1     1  UNL1        0.0088
     20 C          67.1003   92.4364   15.0580 C.3     1  UNL1        0.4589
     21 F          67.6992   92.2460   16.4200 F       1  UNL1       -0.1586
     22 F          66.8025   90.9682   14.9837 F       1  UNL1       -0.1586
     23 F          67.3982   93.9047   15.1323 F       1  UNL1       -0.1586
     24 O          63.8003   81.2791   12.6884 O.3     1  UNL1       -0.2926
     25 P          62.5484   80.8350   13.3853 P.3     1  UNL1        0.3697
     26 O          62.4070   79.7038   12.4104 O.2     1  UNL1       -0.2553
     27 O          61.2966   80.3909   14.0822 O.3     1  UNL1       -0.3218
     28 H          60.9406   79.6055   13.6380 H       1  UNL1        0.2198
     29 C          62.6899   81.9662   14.3602 C.3     1  UNL1        0.2579
     30 O          64.0293   82.6049   14.5788 O.3     1  UNL1       -0.3426
     31 C          65.3653   84.8202   14.8181 C.3     1  UNL1        0.0342
     32 C          64.1145   84.0259   15.0514 C.3     1  UNL1        0.1387
     33 C          62.9487   84.6527   15.7574 C.3     1  UNL1        0.1384
     34 N          63.0404   86.0679   16.2460 N.ar    1  UNL1       -0.2918
     35 C          62.8101   86.5312   17.6540 C.ar    1  UNL1        0.1798
     36 N          63.0059   88.0179   17.6905 N.ar    1  UNL1       -0.2195
     37 C          63.3572   88.4735   16.3052 C.ar    1  UNL1        0.1481
     38 C          63.6605   89.8299   15.7413 C.ar    1  UNL1        0.1480
     39 N          63.6391   91.0351   16.6341 N.pl3   1  UNL1       -0.3413
     40 N          63.9850   89.9812   14.2847 N.ar    1  UNL1       -0.2078
     41 C          64.0064   88.7760   13.3920 C.ar    1  UNL1        0.2015
     42 N          63.7031   87.4195   13.9558 N.ar    1  UNL1       -0.2048
     43 C          63.3786   87.2682   15.4124 C.ar    1  UNL1        0.1674
     44 H          63.4261   90.9359   17.5901 H       1  UNL1        0.1438
     45 H          63.8382   91.9255   16.2640 H       1  UNL1        0.1438
@<TRIPOS>BOND
     1    32    31    1
     2    32    33    1
     3    33    34    1
     4    34    35   ar
     5    35    36   ar
     6    36    37   ar
     7    37    38   ar
     8    38    39    1
     9    38    40   ar
    10    40    41   ar
    11    41    42   ar
    12    42    43   ar
    13    32    30    1
    14    30    29    1
    15    29    25    1
    16    25    26    2
    17    25    27    1
    18    25    24    1
    19    24     1    1
    20     1     2    1
    21     2     3    1
    22     3     4    1
    23     4     5    1
    24     5     6    1
    25     6     7    1
    26     7     8    1
    27     8     9    1
    28     9    10    1
    29    10    11    1
    30    11    12    1
    31    12    13    1
    32    13    14    1
    33    14    15    1
    34    15    16    1
    35    16    17    1
    36    17    18    1
    37    18    19    3
    38    19    20    1
    39    20    21    1
    40    20    22    1
    41    20    23    1
    42    43    34   ar
    43    43    37   ar
    44    39    44    1
    45    39    45    1
    46    27    28    1
