@<TRIPOS>MOLECULE
*****
 32 35 0 0 0
SMALL
GASTEIGER

@<TRIPOS>ATOM
      1 C          63.2817   87.1127   12.7842 C.ar    1  UNL1        0.1390
      2 C          63.3709   85.6263   12.9646 C.ar    1  UNL1        0.0733
      3 C          62.6341   84.7119   12.0313 C.ar    1  UNL1        0.1679
      4 N          61.8081   85.2840   10.9175 N.ar    1  UNL1       -0.2061
      5 C          61.7189   86.7704   10.7370 C.ar    1  UNL1        0.1828
      6 N          62.4558   87.6848   11.6704 N.ar    1  UNL1       -0.2101
      7 N          62.7233   83.2255   12.2118 N.ar    1  UNL1       -0.2164
      8 N          62.1003   82.4333   13.3229 N.ar    1  UNL1       -0.1684
      9 C          62.4432   80.9884   13.1106 C.ar    1  UNL1        0.0805
     10 C          62.0246   79.8451   13.9867 C.3     1  UNL1        0.0540
     11 C          63.2779   80.8877   11.8684 C.ar    1  UNL1        0.0312
     12 C          63.4511   82.2703   11.3129 C.ar    1  UNL1        0.0637
     13 C          64.2174   82.6338   10.0758 C.3     1  UNL1        0.0522
     14 C          60.8930   87.3425    9.6233 C.ar    1  UNL1        0.1171
     15 C          60.1250   86.4297    8.7140 C.ar    1  UNL1        0.0223
     16 C          59.2990   87.0018    7.6002 C.ar    1  UNL1        0.0032
     17 C          59.2410   88.4866    7.3957 C.ar    1  UNL1        0.0207
     18 C          60.0091   89.3995    8.3051 C.ar    1  UNL1        0.0989
     19 N          60.8351   88.8274    9.4188 N.ar    1  UNL1       -0.2407
     20 C          63.4150   89.3431   14.1100 C.2     1  UNL1        0.2316
     21 O          62.0747   89.7446   13.5692 O.2     1  UNL1       -0.2744
     22 N          64.0185   88.0271   13.7174 N.am    1  UNL1       -0.2689
     23 H          64.8982   87.7635   14.0724 H       1  UNL1        0.1563
     24 C          64.1518   90.2574   15.0433 C.3     1  UNL1        0.1117
     25 C          65.6279   93.2997   11.0979 C.3     1  UNL1        0.0310
     26 C          65.7837   92.8501   12.5204 C.ar    1  UNL1       -0.0225
     27 C          66.8334   93.4722   13.3928 C.ar    1  UNL1       -0.0085
     28 C          66.9893   93.0227   14.8154 C.ar    1  UNL1       -0.0225
     29 C          68.0391   93.6448   15.6878 C.3     1  UNL1        0.0310
     30 C          66.0954   91.9511   15.3655 C.ar    1  UNL1       -0.0081
     31 C          65.0457   91.3291   14.4931 C.ar    1  UNL1       -0.0137
     32 C          64.8899   91.7786   13.0706 C.ar    1  UNL1       -0.0081
@<TRIPOS>BOND
     1    25    26    1
     2    26    27   ar
     3    27    28   ar
     4    28    29    1
     5    28    30   ar
     6    30    31   ar
     7    31    24    1
     8    24    20    1
     9    20    21    2
    10    20    22   am
    11    22     1    1
    12     1     2   ar
    13     2     3   ar
    14     3     7    1
    15     7     8   ar
    16     8     9   ar
    17     9    10    1
    18     9    11   ar
    19    11    12   ar
    20    12    13    1
    21     3     4   ar
    22     4     5   ar
    23     5    14    1
    24    14    15   ar
    25    15    16   ar
    26    16    17   ar
    27    17    18   ar
    28    18    19   ar
    29     5     6   ar
    30    31    32   ar
    31    32    26   ar
    32     6     1   ar
    33    12     7   ar
    34    19    14   ar
    35    22    23    1
@<TRIPOS>MOLECULE
*****
 32 35 0 0 0
SMALL
GASTEIGER

@<TRIPOS>ATOM
      1 C          63.2817   87.1126   12.7839 C.ar    1  UNL1        0.1390
      2 C          63.3713   85.6262   12.9640 C.ar    1  UNL1        0.0733
      3 C          62.6348   84.7118   12.0306 C.ar    1  UNL1        0.1679
      4 N          61.8085   85.2838   10.9170 N.ar    1  UNL1       -0.2061
      5 C          61.7189   86.7703   10.7368 C.ar    1  UNL1        0.1828
      6 N          62.4555   87.6847   11.6703 N.ar    1  UNL1       -0.2101
      7 N          62.7244   83.2253   12.2108 N.ar    1  UNL1       -0.2164
      8 N          62.1017   82.4327   13.3218 N.ar    1  UNL1       -0.1684
      9 C          62.4449   80.9880   13.1092 C.ar    1  UNL1        0.0805
     10 C          62.0267   79.8444   13.9851 C.3     1  UNL1        0.0540
     11 C          63.2797   80.8878   11.8670 C.ar    1  UNL1        0.0312
     12 C          63.4524   82.2705   11.3117 C.ar    1  UNL1        0.0637
     13 C          64.2186   82.6345   10.0746 C.3     1  UNL1        0.0522
     14 C          60.8927   87.3423    9.6232 C.ar    1  UNL1        0.1171
     15 C          60.1258   86.4294    8.7130 C.ar    1  UNL1        0.0223
     16 C          59.2996   87.0014    7.5994 C.ar    1  UNL1        0.0032
     17 C          59.2403   88.4864    7.3960 C.ar    1  UNL1        0.0207
     18 C          60.0072   89.3993    8.3062 C.ar    1  UNL1        0.0989
     19 N          60.8334   88.8273    9.4198 N.ar    1  UNL1       -0.2407
     20 C          63.4148   89.3431   14.1095 C.2     1  UNL1        0.2316
     21 O          62.0748   89.7447   13.5683 O.2     1  UNL1       -0.2744
     22 N          64.0183   88.0270   13.7173 N.am    1  UNL1       -0.2689
     23 H          64.8978   87.7634   14.0725 H       1  UNL1        0.1563
     24 C          64.1514   90.2575   15.0429 C.3     1  UNL1        0.1117
     25 C          68.0386   93.6448   15.6885 C.3     1  UNL1        0.0310
     26 C          66.9892   93.0226   14.8157 C.ar    1  UNL1       -0.0225
     27 C          66.8339   93.4719   13.3931 C.ar    1  UNL1       -0.0085
     28 C          65.7845   92.8497   12.5203 C.ar    1  UNL1       -0.0225
     29 C          65.6293   93.2990   11.0976 C.3     1  UNL1        0.0310
     30 C          64.8904   91.7783   13.0702 C.ar    1  UNL1       -0.0081
     31 C          65.0456   91.3290   14.4929 C.ar    1  UNL1       -0.0137
     32 C          66.0950   91.9512   15.3656 C.ar    1  UNL1       -0.0081
@<TRIPOS>BOND
     1    25    26    1
     2    26    27   ar
     3    27    28   ar
     4    28    29    1
     5    28    30   ar
     6    30    31   ar
     7    31    24    1
     8    24    20    1
     9    20    21    2
    10    20    22   am
    11    22     1    1
    12     1     2   ar
    13     2     3   ar
    14     3     7    1
    15     7     8   ar
    16     8     9   ar
    17     9    10    1
    18     9    11   ar
    19    11    12   ar
    20    12    13    1
    21     3     4   ar
    22     4     5   ar
    23     5    14    1
    24    14    15   ar
    25    15    16   ar
    26    16    17   ar
    27    17    18   ar
    28    18    19   ar
    29     5     6   ar
    30    31    32   ar
    31    32    26   ar
    32     6     1   ar
    33    12     7   ar
    34    19    14   ar
    35    22    23    1
@<TRIPOS>MOLECULE
*****
 32 35 0 0 0
SMALL
GASTEIGER

@<TRIPOS>ATOM
      1 C          63.1114   88.8100   11.8816 C.ar    1  UNL1        0.1390
      2 C          62.2650   89.0066   10.6590 C.ar    1  UNL1        0.0733
      3 C          61.4896   87.8552   10.0905 C.ar    1  UNL1        0.1679
      4 N          61.5607   86.5072   10.7447 N.ar    1  UNL1       -0.2061
      5 C          62.4072   86.3106   11.9673 C.ar    1  UNL1        0.1828
      6 N          63.1826   87.4620   12.5358 N.ar    1  UNL1       -0.2101
      7 N          60.6431   88.0518    8.8679 N.ar    1  UNL1       -0.2164
      8 N          60.1053   89.3603    8.3689 N.ar    1  UNL1       -0.1684
      9 C          59.3156   89.0916    7.1222 C.ar    1  UNL1        0.0805
     10 C          58.6016   90.1173    6.2927 C.3     1  UNL1        0.0540
     11 C          59.3653   87.6172    6.8507 C.ar    1  UNL1        0.0312
     12 C          60.1857   86.9746    7.9296 C.ar    1  UNL1        0.0637
     13 C          60.4946   85.5116    8.0492 C.3     1  UNL1        0.0522
     14 C          62.4783   84.9627   12.6215 C.ar    1  UNL1        0.1171
     15 C          62.6387   83.7296   11.7828 C.ar    1  UNL1        0.0223
     16 C          62.7098   82.3815   12.4369 C.ar    1  UNL1        0.0032
     17 C          62.6205   82.2667   13.9299 C.ar    1  UNL1        0.0207
     18 C          62.4600   83.5000   14.7686 C.ar    1  UNL1        0.0989
     19 N          62.3889   84.8479   14.1144 N.ar    1  UNL1       -0.2407
     20 C          64.0809   91.2082   11.6391 C.2     1  UNL1        0.2316
     21 O          63.4995   91.3037   10.2596 O.2     1  UNL1       -0.2744
     22 N          63.8868   89.9613   12.4501 N.am    1  UNL1       -0.2689
     23 H          64.2684   89.8986   13.3554 H       1  UNL1        0.1563
     24 C          64.8562   92.3595   12.2075 C.3     1  UNL1        0.1117
     25 C          68.8123   92.3580    8.8386 C.3     1  UNL1        0.0310
     26 C          67.8057   93.1079    9.6598 C.ar    1  UNL1       -0.0225
     27 C          67.7705   94.6068    9.6178 C.ar    1  UNL1       -0.0085
     28 C          66.7639   95.3567   10.4390 C.ar    1  UNL1       -0.0225
     29 C          66.7287   96.8558   10.3969 C.3     1  UNL1        0.0310
     30 C          65.7925   94.6077   11.3022 C.ar    1  UNL1       -0.0081
     31 C          65.8277   93.1087   11.3442 C.ar    1  UNL1       -0.0137
     32 C          66.8343   92.3588   10.5230 C.ar    1  UNL1       -0.0081
@<TRIPOS>BOND
     1    25    26    1
     2    26    27   ar
     3    27    28   ar
     4    28    29    1
     5    28    30   ar
     6    30    31   ar
     7    31    24    1
     8    24    20    1
     9    20    21    2
    10    20    22   am
    11    22     1    1
    12     1     2   ar
    13     2     3   ar
    14     3     7    1
    15     7     8   ar
    16     8     9   ar
    17     9    10    1
    18     9    11   ar
    19    11    12   ar
    20    12    13    1
    21     3     4   ar
    22     4     5   ar
    23     5    14    1
    24    14    15   ar
    25    15    16   ar
    26    16    17   ar
    27    17    18   ar
    28    18    19   ar
    29     5     6   ar
    30    31    32   ar
    31    32    26   ar
    32     6     1   ar
    33    12     7   ar
    34    19    14   ar
    35    22    23    1
@<TRIPOS>MOLECULE
*****
 32 35 0 0 0
SMALL
GASTEIGER

@<TRIPOS>ATOM
      1 C          63.5044   87.3130   13.1607 C.ar    1  UNL1        0.1390
      2 C          62.7206   87.8934   12.0211 C.ar    1  UNL1        0.0733
      3 C          61.9114   86.9953   11.1331 C.ar    1  UNL1        0.1679
      4 N          61.8860   85.5167   11.3847 N.ar    1  UNL1       -0.2061
      5 C          62.6699   84.9363   12.5243 C.ar    1  UNL1        0.1828
      6 N          63.4791   85.8345   13.4124 N.ar    1  UNL1       -0.2101
      7 N          61.1275   87.5757    9.9935 N.ar    1  UNL1       -0.2164
      8 N          60.2446   86.8121    9.0514 N.ar    1  UNL1       -0.1684
      9 C          59.6604   87.7861    8.0715 C.ar    1  UNL1        0.0805
     10 C          58.7195   87.4530    6.9518 C.3     1  UNL1        0.0540
     11 C          60.1822   89.1515    8.4080 C.ar    1  UNL1        0.0312
     12 C          61.0889   89.0215    9.5959 C.ar    1  UNL1        0.0637
     13 C          61.8274   90.1408   10.2680 C.3     1  UNL1        0.0522
     14 C          62.6446   83.4578   12.7759 C.ar    1  UNL1        0.1171
     15 C          62.9900   82.5031   11.6718 C.ar    1  UNL1        0.0223
     16 C          62.9647   81.0245   11.9234 C.ar    1  UNL1        0.0032
     17 C          62.5940   80.5007   13.2792 C.ar    1  UNL1        0.0207
     18 C          62.2485   81.4555   14.3833 C.ar    1  UNL1        0.0989
     19 N          62.2738   82.9340   14.1317 N.ar    1  UNL1       -0.2407
     20 C          63.7112   89.4757   14.5856 C.2     1  UNL1        0.2316
     21 O          62.2997   89.8420   14.2344 O.2     1  UNL1       -0.2744
     22 N          64.3136   88.2111   14.0487 N.am    1  UNL1       -0.2689
     23 H          65.2400   87.9706   14.2792 H       1  UNL1        0.1563
     24 C          64.5204   90.3738   15.4736 C.3     1  UNL1        0.1117
     25 C          65.7448   93.4093   11.4380 C.3     1  UNL1        0.0310
     26 C          65.9751   92.9781   12.8560 C.ar    1  UNL1       -0.0225
     27 C          67.0480   93.6332   13.6743 C.ar    1  UNL1       -0.0085
     28 C          67.2783   93.2019   15.0924 C.ar    1  UNL1       -0.0225
     29 C          68.3512   93.8572   15.9107 C.3     1  UNL1        0.0310
     30 C          66.4358   92.1155   15.6922 C.ar    1  UNL1       -0.0081
     31 C          65.3630   91.4603   14.8739 C.ar    1  UNL1       -0.0137
     32 C          65.1326   91.8916   13.4558 C.ar    1  UNL1       -0.0081
@<TRIPOS>BOND
     1    25    26    1
     2    26    27   ar
     3    27    28   ar
     4    28    29    1
     5    28    30   ar
     6    30    31   ar
     7    31    24    1
     8    24    20    1
     9    20    21    2
    10    20    22   am
    11    22     1    1
    12     1     2   ar
    13     2     3   ar
    14     3     7    1
    15     7     8   ar
    16     8     9   ar
    17     9    10    1
    18     9    11   ar
    19    11    12   ar
    20    12    13    1
    21     3     4   ar
    22     4     5   ar
    23     5    14    1
    24    14    15   ar
    25    15    16   ar
    26    16    17   ar
    27    17    18   ar
    28    18    19   ar
    29     5     6   ar
    30    31    32   ar
    31    32    26   ar
    32     6     1   ar
    33    12     7   ar
    34    19    14   ar
    35    22    23    1
@<TRIPOS>MOLECULE
*****
 32 35 0 0 0
SMALL
GASTEIGER

@<TRIPOS>ATOM
      1 C          63.5403   87.4414   13.1398 C.ar    1  UNL1        0.1390
      2 C          62.7465   88.0098   12.0010 C.ar    1  UNL1        0.0733
      3 C          61.9372   87.1013   11.1238 C.ar    1  UNL1        0.1679
      4 N          61.9217   85.6243   11.3853 N.ar    1  UNL1       -0.2061
      5 C          62.7155   85.0559   12.5240 C.ar    1  UNL1        0.1828
      6 N          63.5249   85.9645   13.4013 N.ar    1  UNL1       -0.2101
      7 N          61.1434   87.6697    9.9851 N.ar    1  UNL1       -0.2164
      8 N          60.3411   86.8838    8.9906 N.ar    1  UNL1       -0.1684
      9 C          59.7144   87.8522    8.0318 C.ar    1  UNL1        0.0805
     10 C          58.8283   87.4983    6.8743 C.3     1  UNL1        0.0540
     11 C          60.1292   89.2366    8.4336 C.ar    1  UNL1        0.0312
     12 C          61.0123   89.1238    9.6408 C.ar    1  UNL1        0.0637
     13 C          61.6521   90.2648   10.3748 C.3     1  UNL1        0.0522
     14 C          62.7000   83.5790   12.7856 C.ar    1  UNL1        0.1171
     15 C          62.9655   82.6164   11.6663 C.ar    1  UNL1        0.0223
     16 C          62.9500   81.1394   11.9278 C.ar    1  UNL1        0.0032
     17 C          62.6691   80.6251   13.3086 C.ar    1  UNL1        0.0207
     18 C          62.4036   81.5878   14.4279 C.ar    1  UNL1        0.0989
     19 N          62.4191   83.0647   14.1664 N.ar    1  UNL1       -0.2407
     20 C          63.7023   89.5360   14.6684 C.2     1  UNL1        0.2316
     21 O          62.2455   89.8134   14.4426 O.2     1  UNL1       -0.2744
     22 N          64.3497   88.3500   14.0170 N.am    1  UNL1       -0.2689
     23 H          65.3057   88.1678   14.1652 H       1  UNL1        0.1563
     24 C          64.5116   90.4445   15.5456 C.3     1  UNL1        0.1117
     25 C          68.4045   93.8638   15.9371 C.3     1  UNL1        0.0310
     26 C          67.3195   93.2178   15.1276 C.ar    1  UNL1       -0.0225
     27 C          67.0959   93.6353   13.7043 C.ar    1  UNL1       -0.0085
     28 C          66.0108   92.9892   12.8948 C.ar    1  UNL1       -0.0225
     29 C          65.7872   93.4067   11.4715 C.3     1  UNL1        0.0310
     30 C          65.1494   91.9256   13.5086 C.ar    1  UNL1       -0.0081
     31 C          65.3730   91.5081   14.9318 C.ar    1  UNL1       -0.0137
     32 C          66.4581   92.1542   15.7413 C.ar    1  UNL1       -0.0081
@<TRIPOS>BOND
     1    25    26    1
     2    26    27   ar
     3    27    28   ar
     4    28    29    1
     5    28    30   ar
     6    30    31   ar
     7    31    24    1
     8    24    20    1
     9    20    21    2
    10    20    22   am
    11    22     1    1
    12     1     2   ar
    13     2     3   ar
    14     3     7    1
    15     7     8   ar
    16     8     9   ar
    17     9    10    1
    18     9    11   ar
    19    11    12   ar
    20    12    13    1
    21     3     4   ar
    22     4     5   ar
    23     5    14    1
    24    14    15   ar
    25    15    16   ar
    26    16    17   ar
    27    17    18   ar
    28    18    19   ar
    29     5     6   ar
    30    31    32   ar
    31    32    26   ar
    32     6     1   ar
    33    12     7   ar
    34    19    14   ar
    35    22    23    1
@<TRIPOS>MOLECULE
*****
 32 35 0 0 0
SMALL
GASTEIGER

@<TRIPOS>ATOM
      1 C          63.5076   90.0002   11.5651 C.ar    1  UNL1        0.1390
      2 C          63.7806   89.0375   12.6826 C.ar    1  UNL1        0.0733
      3 C          63.1123   87.6947   12.6958 C.ar    1  UNL1        0.1679
      4 N          62.1709   87.3145   11.5915 N.ar    1  UNL1       -0.2061
      5 C          61.8979   88.2772   10.4741 C.ar    1  UNL1        0.1828
      6 N          62.5662   89.6201   10.4609 N.ar    1  UNL1       -0.2101
      7 N          63.3854   86.7320   13.8132 N.ar    1  UNL1       -0.2164
      8 N          63.4290   87.0670   15.2747 N.ar    1  UNL1       -0.1684
      9 C          63.7333   85.8072   16.0301 C.ar    1  UNL1        0.0805
     10 C          63.8693   85.6829   17.5187 C.3     1  UNL1        0.0540
     11 C          63.8778   84.6937   15.0355 C.ar    1  UNL1        0.0312
     12 C          63.6627   85.2653   13.6654 C.ar    1  UNL1        0.0637
     13 C          63.7157   84.5037   12.3742 C.3     1  UNL1        0.0522
     14 C          60.9566   87.8971    9.3698 C.ar    1  UNL1        0.1171
     15 C          60.1936   88.9596    8.6358 C.ar    1  UNL1        0.0223
     16 C          59.2522   88.5795    7.5315 C.ar    1  UNL1        0.0032
     17 C          59.0739   87.1369    7.1613 C.ar    1  UNL1        0.0207
     18 C          59.8370   86.0743    7.8953 C.ar    1  UNL1        0.0989
     19 N          60.7783   86.4545    8.9996 N.ar    1  UNL1       -0.2407
     20 C          65.0352   91.7645   12.7069 C.2     1  UNL1        0.2316
     21 O          65.2263   90.8431   13.8751 O.2     1  UNL1       -0.2744
     22 N          64.1758   91.3430   11.5519 N.am    1  UNL1       -0.2689
     23 H          64.0504   91.9477   10.7853 H       1  UNL1        0.1563
     24 C          65.7035   93.1073   12.6937 C.3     1  UNL1        0.1117
     25 C          68.9362   92.0984    8.7527 C.3     1  UNL1        0.0310
     26 C          68.0616   93.0595    9.5020 C.ar    1  UNL1       -0.0225
     27 C          67.9288   94.4771    9.0302 C.ar    1  UNL1       -0.0085
     28 C          67.0542   95.4381    9.7795 C.ar    1  UNL1       -0.0225
     29 C          66.9214   96.8558    9.3076 C.3     1  UNL1        0.0310
     30 C          66.3124   94.9815   11.0007 C.ar    1  UNL1       -0.0081
     31 C          66.4453   93.5639   11.4725 C.ar    1  UNL1       -0.0137
     32 C          67.3199   92.6029   10.7232 C.ar    1  UNL1       -0.0081
@<TRIPOS>BOND
     1    25    26    1
     2    26    27   ar
     3    27    28   ar
     4    28    29    1
     5    28    30   ar
     6    30    31   ar
     7    31    24    1
     8    24    20    1
     9    20    21    2
    10    20    22   am
    11    22     1    1
    12     1     2   ar
    13     2     3   ar
    14     3     7    1
    15     7     8   ar
    16     8     9   ar
    17     9    10    1
    18     9    11   ar
    19    11    12   ar
    20    12    13    1
    21     3     4   ar
    22     4     5   ar
    23     5    14    1
    24    14    15   ar
    25    15    16   ar
    26    16    17   ar
    27    17    18   ar
    28    18    19   ar
    29     5     6   ar
    30    31    32   ar
    31    32    26   ar
    32     6     1   ar
    33    12     7   ar
    34    19    14   ar
    35    22    23    1
