@<TRIPOS>MOLECULE
*****
 30 33 0 0 0
SMALL
GASTEIGER

@<TRIPOS>ATOM
      1 N          63.6921   88.5081   13.0601 N.ar    1  UNL1       -0.2644
      2 C          63.6879   89.9878   12.8143 C.ar    1  UNL1        0.2037
      3 N          62.8254   90.5657   11.7317 N.ar    1  UNL1       -0.2148
      4 C          61.9671   89.6640   10.8949 C.ar    1  UNL1        0.0888
      5 C          61.1046   90.2419    9.8123 C.ar    1  UNL1        0.0202
      6 C          60.2463   89.3402    8.9755 C.ar    1  UNL1        0.0129
      7 C          60.2506   87.8605    9.2214 C.ar    1  UNL1        0.0579
      8 CL         59.3923   86.9587    8.3845 Cl      1  UNL1       -0.0822
      9 C          61.1131   87.2825   10.3039 C.ar    1  UNL1        0.0176
     10 C          61.9713   88.1843   11.1407 C.ar    1  UNL1        0.0748
     11 C          62.8339   87.6063   12.2233 C.ar    1  UNL1        0.2645
     12 O          62.8382   86.1266   12.4691 O.2     1  UNL1       -0.2668
     13 N          64.5462   90.8895   13.6511 N.pl3   1  UNL1       -0.2781
     14 C          65.8673   91.3674   13.1255 C.3     1  UNL1        0.0937
     15 C          66.7255   92.2691   13.9623 C.3     1  UNL1        0.0229
     16 C          66.2626   92.6930   15.3247 C.3     1  UNL1        0.0190
     17 C          64.9415   92.2151   15.8503 C.3     1  UNL1        0.0710
     18 N          64.4786   92.6390   17.2127 N.3     1  UNL1       -0.3208
     19 C          64.0833   91.3134   15.0135 C.3     1  UNL1        0.1089
     20 H          65.1804   93.2457   17.6367 H       1  UNL1        0.1189
     21 H          64.3438   91.8144   17.7978 H       1  UNL1        0.1189
     22 C          64.5547   87.9301   14.1427 C.3     1  UNL1        0.1391
     23 C          63.8984   85.9885   15.7393 C.ar    1  UNL1        0.0663
     24 C          63.2774   85.5125   17.0191 C.ar    1  UNL1        0.0100
     25 C          62.6918   86.5023   17.9821 C.ar    1  UNL1        0.0007
     26 C          62.7271   87.9681   17.6653 C.ar    1  UNL1       -0.0002
     27 C          63.3481   88.4440   16.3855 C.ar    1  UNL1       -0.0017
     28 C          63.9337   87.4542   15.4225 C.ar    1  UNL1        0.0102
     29 N          65.0697   84.0089   13.8133 N.1     1  UNL1       -0.1908
     30 C          64.4840   84.9987   14.7763 C.1     1  UNL1        0.1002
@<TRIPOS>BOND
     1    29    30    3
     2    30    23    1
     3    23    24   ar
     4    24    25   ar
     5    25    26   ar
     6    26    27   ar
     7    27    28   ar
     8    28    22    1
     9    22     1    1
    10     1     2   ar
    11     2    13    1
    12    13    14    1
    13    14    15    1
    14    15    16    1
    15    16    17    1
    16    17    18    1
    17    17    19    1
    18     2     3   ar
    19     3     4   ar
    20     4     5   ar
    21     5     6   ar
    22     6     7   ar
    23     7     8    1
    24     7     9   ar
    25     9    10   ar
    26    10    11   ar
    27    11    12    2
    28    28    23   ar
    29    11     1   ar
    30    19    13    1
    31    10     4   ar
    32    18    20    1
    33    18    21    1
@<TRIPOS>MOLECULE
*****
 30 33 0 0 0
SMALL
GASTEIGER

@<TRIPOS>ATOM
      1 N          62.4085   87.4080   11.7012 N.ar    1  UNL1       -0.2644
      2 C          62.0912   88.1010   10.4093 C.ar    1  UNL1        0.2037
      3 N          62.6033   89.4881   10.1568 N.ar    1  UNL1       -0.2148
      4 C          63.4328   90.1822   11.1962 C.ar    1  UNL1        0.0888
      5 C          63.9449   91.5692   10.9437 C.ar    1  UNL1        0.0202
      6 C          64.7742   92.2632   11.9831 C.ar    1  UNL1        0.0129
      7 C          65.0915   91.5702   13.2750 C.ar    1  UNL1        0.0579
      8 CL         65.9210   92.2643   14.3145 Cl      1  UNL1       -0.0822
      9 C          64.5794   90.1831   13.5275 C.ar    1  UNL1        0.0176
     10 C          63.7500   89.4891   12.4881 C.ar    1  UNL1        0.0748
     11 C          63.2379   88.1020   12.7406 C.ar    1  UNL1        0.2645
     12 O          63.5552   87.4089   14.0325 O.2     1  UNL1       -0.2668
     13 N          61.2618   87.4069    9.3698 N.pl3   1  UNL1       -0.2781
     14 C          59.8030   87.7293    9.2363 C.3     1  UNL1        0.0937
     15 C          58.9736   87.0352    8.1969 C.3     1  UNL1        0.0229
     16 C          59.6031   86.0188    7.2910 C.3     1  UNL1        0.0190
     17 C          61.0619   85.6964    7.4245 C.3     1  UNL1        0.0710
     18 N          61.6914   84.6800    6.5187 N.3     1  UNL1       -0.3208
     19 C          61.8913   86.3905    8.4639 C.3     1  UNL1        0.1089
     20 H          60.9871   84.3120    5.8792 H       1  UNL1        0.1189
     21 H          62.0748   83.9176    7.0775 H       1  UNL1        0.1189
     22 C          61.8964   86.0209   11.9536 C.3     1  UNL1        0.1391
     23 C          63.1983   83.9926   12.9237 C.ar    1  UNL1        0.0663
     24 C          64.1009   82.8116   12.7221 C.ar    1  UNL1        0.0100
     25 C          64.6042   82.4780   11.3491 C.ar    1  UNL1        0.0007
     26 C          64.2049   83.3253   10.1775 C.ar    1  UNL1       -0.0002
     27 C          63.3023   84.5062   10.3790 C.ar    1  UNL1       -0.0017
     28 C          62.7990   84.8399   11.7521 C.ar    1  UNL1        0.0102
     29 N          62.1917   84.6599   15.6698 N.1     1  UNL1       -0.1908
     30 C          62.6950   84.3262   14.2967 C.1     1  UNL1        0.1002
@<TRIPOS>BOND
     1    29    30    3
     2    30    23    1
     3    23    24   ar
     4    24    25   ar
     5    25    26   ar
     6    26    27   ar
     7    27    28   ar
     8    28    22    1
     9    22     1    1
    10     1     2   ar
    11     2    13    1
    12    13    14    1
    13    14    15    1
    14    15    16    1
    15    16    17    1
    16    17    18    1
    17    17    19    1
    18     2     3   ar
    19     3     4   ar
    20     4     5   ar
    21     5     6   ar
    22     6     7   ar
    23     7     8    1
    24     7     9   ar
    25     9    10   ar
    26    10    11   ar
    27    11    12    2
    28    28    23   ar
    29    11     1   ar
    30    19    13    1
    31    10     4   ar
    32    18    20    1
    33    18    21    1
@<TRIPOS>MOLECULE
*****
 30 33 0 0 0
SMALL
GASTEIGER

@<TRIPOS>ATOM
      1 N          63.2175   90.0139   12.7284 N.ar    1  UNL1       -0.2644
      2 C          64.1691   89.8206   13.8716 C.ar    1  UNL1        0.2037
      3 N          65.4131   90.6539   13.9610 N.ar    1  UNL1       -0.2148
      4 C          65.7055   91.6806   12.9072 C.ar    1  UNL1        0.0888
      5 C          66.9495   92.5139   12.9966 C.ar    1  UNL1        0.0202
      6 C          67.2418   93.5405   11.9428 C.ar    1  UNL1        0.0129
      7 C          66.2901   93.7339   10.7996 C.ar    1  UNL1        0.0579
      8 CL         66.5825   94.7606    9.7458 Cl      1  UNL1       -0.0822
      9 C          65.0461   92.9006   10.7102 C.ar    1  UNL1        0.0176
     10 C          64.7538   91.8739   11.7640 C.ar    1  UNL1        0.0748
     11 C          63.5098   91.0405   11.6746 C.ar    1  UNL1        0.2645
     12 O          62.5581   91.2339   10.5314 O.2     1  UNL1       -0.2668
     13 N          63.8767   88.7939   14.9254 N.pl3   1  UNL1       -0.2781
     14 C          63.1852   89.1971   16.1939 C.3     1  UNL1        0.0937
     15 C          62.8929   88.1704   17.2477 C.3     1  UNL1        0.0229
     16 C          63.2921   86.7405   17.0329 C.3     1  UNL1        0.0190
     17 C          63.9836   86.3373   15.7644 C.3     1  UNL1        0.0710
     18 N          64.3828   84.9075   15.5496 N.3     1  UNL1       -0.3208
     19 C          64.2759   87.3640   14.7106 C.3     1  UNL1        0.1089
     20 H          64.1091   84.3526   16.3605 H       1  UNL1        0.1189
     21 H          65.3936   84.8517   15.4250 H       1  UNL1        0.1189
     22 C          61.9734   89.1805   12.6390 C.3     1  UNL1        0.1391
     23 C          60.4552   88.9351   10.5450 C.ar    1  UNL1        0.0663
     24 C          60.1125   88.2342    9.2639 C.ar    1  UNL1        0.0100
     25 C          60.9452   87.0779    8.7956 C.ar    1  UNL1        0.0007
     26 C          62.1208   86.6224    9.6084 C.ar    1  UNL1       -0.0002
     27 C          62.4635   87.3232   10.8896 C.ar    1  UNL1       -0.0017
     28 C          61.6307   88.4796   11.3579 C.ar    1  UNL1        0.0102
     29 N          58.7896   91.2478   11.4816 N.1     1  UNL1       -0.1908
     30 C          59.6224   90.0914   11.0133 C.1     1  UNL1        0.1002
@<TRIPOS>BOND
     1    29    30    3
     2    30    23    1
     3    23    24   ar
     4    24    25   ar
     5    25    26   ar
     6    26    27   ar
     7    27    28   ar
     8    28    22    1
     9    22     1    1
    10     1     2   ar
    11     2    13    1
    12    13    14    1
    13    14    15    1
    14    15    16    1
    15    16    17    1
    16    17    18    1
    17    17    19    1
    18     2     3   ar
    19     3     4   ar
    20     4     5   ar
    21     5     6   ar
    22     6     7   ar
    23     7     8    1
    24     7     9   ar
    25     9    10   ar
    26    10    11   ar
    27    11    12    2
    28    28    23   ar
    29    11     1   ar
    30    19    13    1
    31    10     4   ar
    32    18    20    1
    33    18    21    1
@<TRIPOS>MOLECULE
*****
 30 33 0 0 0
SMALL
GASTEIGER

@<TRIPOS>ATOM
      1 N          63.8635   89.5922   12.8937 N.ar    1  UNL1       -0.2644
      2 C          64.3147   89.5863   14.3242 C.ar    1  UNL1        0.2037
      3 N          65.1242   90.7298   14.8600 N.ar    1  UNL1       -0.2148
      4 C          65.4825   91.8793   13.9654 C.ar    1  UNL1        0.0888
      5 C          66.2920   93.0227   14.5012 C.ar    1  UNL1        0.0202
      6 C          66.6503   94.1721   13.6065 C.ar    1  UNL1        0.0129
      7 C          66.1990   94.1781   12.1760 C.ar    1  UNL1        0.0579
      8 CL         66.5573   95.3275   11.2813 Cl      1  UNL1       -0.0822
      9 C          65.3896   93.0346   11.6402 C.ar    1  UNL1        0.0176
     10 C          65.0313   91.8852   12.5348 C.ar    1  UNL1        0.0748
     11 C          64.2218   90.7416   11.9990 C.ar    1  UNL1        0.2645
     12 O          63.7706   90.7475   10.5685 O.2     1  UNL1       -0.2668
     13 N          63.9564   88.4368   15.2189 N.pl3   1  UNL1       -0.2781
     14 C          63.1503   88.6762   16.4610 C.3     1  UNL1        0.0937
     15 C          62.7921   87.5267   17.3556 C.3     1  UNL1        0.0229
     16 C          63.2399   86.1379   17.0081 C.3     1  UNL1        0.0190
     17 C          64.0460   85.8986   15.7660 C.3     1  UNL1        0.0710
     18 N          64.4939   84.5098   15.4185 N.3     1  UNL1       -0.3208
     19 C          64.4043   87.0481   14.8714 C.3     1  UNL1        0.1089
     20 H          64.1644   83.8582   16.1307 H       1  UNL1        0.1189
     21 H          65.5126   84.4815   15.3770 H       1  UNL1        0.1189
     22 C          63.0540   88.4487   12.3579 C.3     1  UNL1        0.1391
     23 C          61.5186   87.6550   10.4181 C.ar    1  UNL1        0.0663
     24 C          60.3917   87.9164    9.4633 C.ar    1  UNL1        0.0100
     25 C          59.6733   89.2328    9.4932 C.ar    1  UNL1        0.0007
     26 C          60.0818   90.2879   10.4781 C.ar    1  UNL1       -0.0002
     27 C          61.2087   90.0265   11.4330 C.ar    1  UNL1       -0.0017
     28 C          61.9271   88.7100   11.4030 C.ar    1  UNL1        0.0102
     29 N          62.9554   85.0221   10.3582 N.1     1  UNL1       -0.1908
     30 C          62.2370   86.3386   10.3882 C.1     1  UNL1        0.1002
@<TRIPOS>BOND
     1    29    30    3
     2    30    23    1
     3    23    24   ar
     4    24    25   ar
     5    25    26   ar
     6    26    27   ar
     7    27    28   ar
     8    28    22    1
     9    22     1    1
    10     1     2   ar
    11     2    13    1
    12    13    14    1
    13    14    15    1
    14    15    16    1
    15    16    17    1
    16    17    18    1
    17    17    19    1
    18     2     3   ar
    19     3     4   ar
    20     4     5   ar
    21     5     6   ar
    22     6     7   ar
    23     7     8    1
    24     7     9   ar
    25     9    10   ar
    26    10    11   ar
    27    11    12    2
    28    28    23   ar
    29    11     1   ar
    30    19    13    1
    31    10     4   ar
    32    18    20    1
    33    18    21    1
@<TRIPOS>MOLECULE
*****
 30 33 0 0 0
SMALL
GASTEIGER

@<TRIPOS>ATOM
      1 N          62.1981   87.3406   11.5068 N.ar    1  UNL1       -0.2644
      2 C          61.7932   88.3557   10.4793 C.ar    1  UNL1        0.2037
      3 N          62.3152   89.7593   10.5655 N.ar    1  UNL1       -0.2148
      4 C          63.2419   90.1479   11.6792 C.ar    1  UNL1        0.0888
      5 C          63.7638   91.5515   11.7654 C.ar    1  UNL1        0.0202
      6 C          64.6906   91.9399   12.8790 C.ar    1  UNL1        0.0129
      7 C          65.0954   90.9248   13.9064 C.ar    1  UNL1        0.0579
      8 CL         66.0222   91.3134   15.0201 Cl      1  UNL1       -0.0822
      9 C          64.5735   89.5212   13.8203 C.ar    1  UNL1        0.0176
     10 C          63.6468   89.1328   12.7066 C.ar    1  UNL1        0.0748
     11 C          63.1248   87.7291   12.6204 C.ar    1  UNL1        0.2645
     12 O          63.5296   86.7140   13.6478 O.2     1  UNL1       -0.2668
     13 N          60.8665   87.9672    9.3656 N.pl3   1  UNL1       -0.2781
     14 C          60.5024   86.5265    9.1610 C.3     1  UNL1        0.0937
     15 C          59.5757   86.1381    8.0474 C.3     1  UNL1        0.0229
     16 C          59.0130   87.1902    7.1384 C.3     1  UNL1        0.0190
     17 C          59.3771   88.6309    7.3430 C.3     1  UNL1        0.0710
     18 N          58.8144   89.6831    6.4340 N.3     1  UNL1       -0.3208
     19 C          60.3038   89.0194    8.4566 C.3     1  UNL1        0.1089
     20 H          58.2091   89.2445    5.7400 H       1  UNL1        0.1189
     21 H          59.5775   90.1679    5.9617 H       1  UNL1        0.1189
     22 C          61.6761   85.9369   11.4205 C.3     1  UNL1        0.1391
     23 C          63.3805   84.1793   10.5512 C.ar    1  UNL1        0.0663
     24 C          64.2977   83.0209   10.8094 C.ar    1  UNL1        0.0100
     25 C          64.4279   82.4617   12.1952 C.ar    1  UNL1        0.0007
     26 C          63.6407   83.0609   13.3228 C.ar    1  UNL1       -0.0002
     27 C          62.7235   84.2193   13.0646 C.ar    1  UNL1       -0.0017
     28 C          62.5934   84.7785   11.6788 C.ar    1  UNL1        0.0102
     29 N          63.1201   85.2977    7.7797 N.1     1  UNL1       -0.1908
     30 C          63.2503   84.7385    9.1655 C.1     1  UNL1        0.1002
@<TRIPOS>BOND
     1    29    30    3
     2    30    23    1
     3    23    24   ar
     4    24    25   ar
     5    25    26   ar
     6    26    27   ar
     7    27    28   ar
     8    28    22    1
     9    22     1    1
    10     1     2   ar
    11     2    13    1
    12    13    14    1
    13    14    15    1
    14    15    16    1
    15    16    17    1
    16    17    18    1
    17    17    19    1
    18     2     3   ar
    19     3     4   ar
    20     4     5   ar
    21     5     6   ar
    22     6     7   ar
    23     7     8    1
    24     7     9   ar
    25     9    10   ar
    26    10    11   ar
    27    11    12    2
    28    28    23   ar
    29    11     1   ar
    30    19    13    1
    31    10     4   ar
    32    18    20    1
    33    18    21    1
@<TRIPOS>MOLECULE
*****
 30 33 0 0 0
SMALL
GASTEIGER

@<TRIPOS>ATOM
      1 N          63.8383   88.9701   12.9677 N.ar    1  UNL1       -0.2644
      2 C          63.9297   90.3603   12.4119 C.ar    1  UNL1        0.2037
      3 N          63.0908   90.7530   11.2321 N.ar    1  UNL1       -0.2148
      4 C          62.1604   89.7554   10.6080 C.ar    1  UNL1        0.0888
      5 C          61.3215   90.1481    9.4282 C.ar    1  UNL1        0.0202
      6 C          60.3911   89.1506    8.8043 C.ar    1  UNL1        0.0129
      7 C          60.2997   87.7604    9.3602 C.ar    1  UNL1        0.0579
      8 CL         59.3693   86.7628    8.7362 Cl      1  UNL1       -0.0822
      9 C          61.1386   87.3677   10.5400 C.ar    1  UNL1        0.0176
     10 C          62.0690   88.3652   11.1639 C.ar    1  UNL1        0.0748
     11 C          62.9079   87.9726   12.3438 C.ar    1  UNL1        0.2645
     12 O          62.8165   86.5824   12.8996 O.2     1  UNL1       -0.2668
     13 N          64.8601   91.3579   13.0359 N.pl3   1  UNL1       -0.2781
     14 C          65.4389   91.0959   14.3946 C.3     1  UNL1        0.0937
     15 C          66.3693   92.0934   15.0186 C.3     1  UNL1        0.0229
     16 C          66.7208   93.3529   14.2837 C.3     1  UNL1        0.0190
     17 C          66.1420   93.6149   12.9250 C.3     1  UNL1        0.0710
     18 N          66.4936   94.8745   12.1901 N.3     1  UNL1       -0.3208
     19 C          65.2117   92.6174   12.3010 C.3     1  UNL1        0.1089
     20 H          67.1319   95.4322   12.7575 H       1  UNL1        0.1189
     21 H          65.6448   95.4098   12.0076 H       1  UNL1        0.1189
     22 C          64.6773   88.5775   14.1476 C.3     1  UNL1        0.1391
     23 C          63.3950   88.4107   16.4010 C.ar    1  UNL1        0.0663
     24 C          62.8018   87.5794   17.4997 C.ar    1  UNL1        0.0100
     25 C          62.8977   86.0836   17.4436 C.ar    1  UNL1        0.0007
     26 C          63.5868   85.4189   16.2888 C.ar    1  UNL1       -0.0002
     27 C          64.1800   86.2502   15.1901 C.ar    1  UNL1       -0.0017
     28 C          64.0841   87.7462   15.2462 C.ar    1  UNL1        0.0102
     29 N          63.2032   91.4025   16.5131 N.1     1  UNL1       -0.1908
     30 C          63.2991   89.9066   16.4571 C.1     1  UNL1        0.1002
@<TRIPOS>BOND
     1    29    30    3
     2    30    23    1
     3    23    24   ar
     4    24    25   ar
     5    25    26   ar
     6    26    27   ar
     7    27    28   ar
     8    28    22    1
     9    22     1    1
    10     1     2   ar
    11     2    13    1
    12    13    14    1
    13    14    15    1
    14    15    16    1
    15    16    17    1
    16    17    18    1
    17    17    19    1
    18     2     3   ar
    19     3     4   ar
    20     4     5   ar
    21     5     6   ar
    22     6     7   ar
    23     7     8    1
    24     7     9   ar
    25     9    10   ar
    26    10    11   ar
    27    11    12    2
    28    28    23   ar
    29    11     1   ar
    30    19    13    1
    31    10     4   ar
    32    18    20    1
    33    18    21    1
@<TRIPOS>MOLECULE
*****
 30 33 0 0 0
SMALL
GASTEIGER

@<TRIPOS>ATOM
      1 N          62.0767   88.9407   11.7547 N.ar    1  UNL1       -0.2644
      2 C          62.3676   87.4719   11.6658 C.ar    1  UNL1        0.2037
      3 N          61.8480   86.6732   10.5073 N.ar    1  UNL1       -0.2148
      4 C          61.0375   87.3434    9.4377 C.ar    1  UNL1        0.0888
      5 C          60.5179   86.5447    8.2792 C.ar    1  UNL1        0.0202
      6 C          59.7075   87.2149    7.2096 C.ar    1  UNL1        0.0129
      7 C          59.4166   88.6837    7.2985 C.ar    1  UNL1        0.0579
      8 CL         58.6061   89.3539    6.2289 Cl      1  UNL1       -0.0822
      9 C          59.9362   89.4824    8.4570 C.ar    1  UNL1        0.0176
     10 C          60.7466   88.8122    9.5266 C.ar    1  UNL1        0.0748
     11 C          61.2663   89.6109   10.6851 C.ar    1  UNL1        0.2645
     12 O          60.9754   91.0797   10.7741 O.2     1  UNL1       -0.2668
     13 N          63.1781   86.8017   12.7354 N.pl3   1  UNL1       -0.2781
     14 C          63.8939   87.6280   13.7624 C.3     1  UNL1        0.0937
     15 C          64.7044   86.9578   14.8320 C.3     1  UNL1        0.0229
     16 C          64.7990   85.4614   14.8745 C.3     1  UNL1        0.0190
     17 C          64.0831   84.6352   13.8475 C.3     1  UNL1        0.0710
     18 N          64.1777   83.1388   13.8901 N.3     1  UNL1       -0.3208
     19 C          63.2727   85.3053   12.7780 C.3     1  UNL1        0.1089
     20 H          64.7641   82.8573   14.6758 H       1  UNL1        0.1189
     21 H          64.5885   82.7992   13.0204 H       1  UNL1        0.1189
     22 C          62.5963   89.7394   12.9133 C.3     1  UNL1        0.1391
     23 C          64.3830   91.3565   13.8841 C.ar    1  UNL1        0.0663
     24 C          65.4832   92.3543   13.6739 C.ar    1  UNL1        0.0100
     25 C          65.8967   92.7327   12.2826 C.ar    1  UNL1        0.0007
     26 C          65.2102   92.1133   11.1015 C.ar    1  UNL1       -0.0002
     27 C          64.1100   91.1156   11.3117 C.ar    1  UNL1       -0.0017
     28 C          63.6965   90.7372   12.7030 C.ar    1  UNL1        0.0102
     29 N          63.5558   90.5998   16.6668 N.1     1  UNL1       -0.1908
     30 C          63.9694   90.9781   15.2754 C.1     1  UNL1        0.1002
@<TRIPOS>BOND
     1    29    30    3
     2    30    23    1
     3    23    24   ar
     4    24    25   ar
     5    25    26   ar
     6    26    27   ar
     7    27    28   ar
     8    28    22    1
     9    22     1    1
    10     1     2   ar
    11     2    13    1
    12    13    14    1
    13    14    15    1
    14    15    16    1
    15    16    17    1
    16    17    18    1
    17    17    19    1
    18     2     3   ar
    19     3     4   ar
    20     4     5   ar
    21     5     6   ar
    22     6     7   ar
    23     7     8    1
    24     7     9   ar
    25     9    10   ar
    26    10    11   ar
    27    11    12    2
    28    28    23   ar
    29    11     1   ar
    30    19    13    1
    31    10     4   ar
    32    18    20    1
    33    18    21    1
@<TRIPOS>MOLECULE
*****
 30 33 0 0 0
SMALL
GASTEIGER

@<TRIPOS>ATOM
      1 N          62.6211   86.8365   11.8085 N.ar    1  UNL1       -0.2644
      2 C          62.1423   87.7227   10.6970 C.ar    1  UNL1        0.2037
      3 N          62.4625   89.1880   10.7152 N.ar    1  UNL1       -0.2148
      4 C          63.2617   89.7671   11.8448 C.ar    1  UNL1        0.0888
      5 C          63.5820   91.2323   11.8630 C.ar    1  UNL1        0.0202
      6 C          64.3811   91.8114   12.9927 C.ar    1  UNL1        0.0129
      7 C          64.8599   90.9251   14.1041 C.ar    1  UNL1        0.0579
      8 CL         65.6591   91.5042   15.2338 Cl      1  UNL1       -0.0822
      9 C          64.5396   89.4599   14.0859 C.ar    1  UNL1        0.0176
     10 C          63.7405   88.8808   12.9563 C.ar    1  UNL1        0.0748
     11 C          63.4202   87.4155   12.9381 C.ar    1  UNL1        0.2645
     12 O          63.8990   86.5293   14.0495 O.2     1  UNL1       -0.2668
     13 N          61.3431   87.1436    9.5673 N.pl3   1  UNL1       -0.2781
     14 C          59.9001   87.5175    9.4006 C.3     1  UNL1        0.0937
     15 C          59.1010   86.9384    8.2709 C.3     1  UNL1        0.0229
     16 C          59.7450   85.9854    7.3081 C.3     1  UNL1        0.0190
     17 C          61.1880   85.6115    7.4748 C.3     1  UNL1        0.0710
     18 N          61.8320   84.6585    6.5120 N.3     1  UNL1       -0.3208
     19 C          61.9871   86.1906    8.6045 C.3     1  UNL1        0.1089
     20 H          61.1480   84.3666    5.8138 H       1  UNL1        0.1189
     21 H          62.1711   83.8407    7.0185 H       1  UNL1        0.1189
     22 C          62.3007   85.3711   11.7902 C.3     1  UNL1        0.1391
     23 C          63.6282   83.3728   12.7873 C.ar    1  UNL1        0.0663
     24 C          63.9925   82.5108   13.9596 C.ar    1  UNL1        0.0100
     25 C          63.3936   82.7853   15.3072 C.ar    1  UNL1        0.0007
     26 C          62.4303   83.9217   15.4825 C.ar    1  UNL1       -0.0002
     27 C          62.0660   84.7837   14.3101 C.ar    1  UNL1       -0.0017
     28 C          62.6650   84.5092   12.9625 C.ar    1  UNL1        0.0102
     29 N          64.8261   82.8238   10.0921 N.1     1  UNL1       -0.1908
     30 C          64.2272   83.0983   11.4398 C.1     1  UNL1        0.1002
@<TRIPOS>BOND
     1    29    30    3
     2    30    23    1
     3    23    24   ar
     4    24    25   ar
     5    25    26   ar
     6    26    27   ar
     7    27    28   ar
     8    28    22    1
     9    22     1    1
    10     1     2   ar
    11     2    13    1
    12    13    14    1
    13    14    15    1
    14    15    16    1
    15    16    17    1
    16    17    18    1
    17    17    19    1
    18     2     3   ar
    19     3     4   ar
    20     4     5   ar
    21     5     6   ar
    22     6     7   ar
    23     7     8    1
    24     7     9   ar
    25     9    10   ar
    26    10    11   ar
    27    11    12    2
    28    28    23   ar
    29    11     1   ar
    30    19    13    1
    31    10     4   ar
    32    18    20    1
    33    18    21    1
@<TRIPOS>MOLECULE
*****
 30 33 0 0 0
SMALL
GASTEIGER

@<TRIPOS>ATOM
      1 N          62.8651   86.7204   11.6445 N.ar    1  UNL1       -0.2644
      2 C          63.4283   87.3535   12.8822 C.ar    1  UNL1        0.2037
      3 N          63.7246   86.5110   14.0873 N.ar    1  UNL1       -0.2148
      4 C          63.4577   85.0352   14.0547 C.ar    1  UNL1        0.0888
      5 C          63.7540   84.1926   15.2597 C.ar    1  UNL1        0.0202
      6 C          63.4870   82.7170   15.2271 C.ar    1  UNL1        0.0129
      7 C          62.9238   82.0839   13.9893 C.ar    1  UNL1        0.0579
      8 CL         62.6568   80.6081   13.9567 Cl      1  UNL1       -0.0822
      9 C          62.6275   82.9265   12.7843 C.ar    1  UNL1        0.0176
     10 C          62.8944   84.4021   12.8169 C.ar    1  UNL1        0.0748
     11 C          62.5981   85.2448   11.6118 C.ar    1  UNL1        0.2645
     12 O          62.0349   84.6117   10.3741 O.2     1  UNL1       -0.2668
     13 N          63.6953   88.8293   12.9148 N.pl3   1  UNL1       -0.2781
     14 C          63.2490   89.6975   11.7760 C.3     1  UNL1        0.0937
     15 C          63.5160   91.1732   11.8086 C.3     1  UNL1        0.0229
     16 C          64.2292   91.7806   12.9801 C.3     1  UNL1        0.0190
     17 C          64.6754   90.9124   14.1190 C.3     1  UNL1        0.0710
     18 N          65.3886   91.5198   15.2904 N.3     1  UNL1       -0.3208
     19 C          64.4085   89.4367   14.0863 C.3     1  UNL1        0.1089
     20 H          65.4839   92.5251   15.1465 H       1  UNL1        0.1189
     21 H          66.3138   91.1000   15.3802 H       1  UNL1        0.1189
     22 C          62.5687   87.5631   10.4394 C.3     1  UNL1        0.1391
     23 C          60.0345   87.6674    9.8768 C.ar    1  UNL1        0.0663
     24 C          58.8879   87.3126    8.9771 C.ar    1  UNL1        0.0100
     25 C          59.1289   86.4988    7.7404 C.ar    1  UNL1        0.0007
     26 C          60.5166   86.0397    7.4032 C.ar    1  UNL1       -0.0002
     27 C          61.6632   86.3945    8.3029 C.ar    1  UNL1       -0.0017
     28 C          61.4221   87.2083    9.5397 C.ar    1  UNL1        0.0102
     29 N          59.5524   89.2951   12.3503 N.1     1  UNL1       -0.1908
     30 C          59.7934   88.4812   11.1135 C.1     1  UNL1        0.1002
@<TRIPOS>BOND
     1    29    30    3
     2    30    23    1
     3    23    24   ar
     4    24    25   ar
     5    25    26   ar
     6    26    27   ar
     7    27    28   ar
     8    28    22    1
     9    22     1    1
    10     1     2   ar
    11     2    13    1
    12    13    14    1
    13    14    15    1
    14    15    16    1
    15    16    17    1
    16    17    18    1
    17    17    19    1
    18     2     3   ar
    19     3     4   ar
    20     4     5   ar
    21     5     6   ar
    22     6     7   ar
    23     7     8    1
    24     7     9   ar
    25     9    10   ar
    26    10    11   ar
    27    11    12    2
    28    28    23   ar
    29    11     1   ar
    30    19    13    1
    31    10     4   ar
    32    18    20    1
    33    18    21    1
