@<TRIPOS>MOLECULE
*****
 20 21 0 0 0
SMALL
GASTEIGER

@<TRIPOS>ATOM
      1 C          63.7679   82.3583   13.7747 C.2     1  UNL1        0.4050
      2 O          64.5125   82.1930   12.4831 O.2     1  UNL1       -0.2262
      3 N          63.6516   83.7144   14.4050 N.am    1  UNL1       -0.2454
      4 C          62.9071   83.8798   15.6966 C.3     1  UNL1        0.1011
      5 C          62.7908   85.2359   16.3270 C.3     1  UNL1        0.0443
      6 C          63.4191   86.4267   15.6658 C.2     1  UNL1       -0.0326
      7 C          63.3028   87.7828   16.2961 C.2     1  UNL1        0.0412
      8 C          64.1636   86.2614   14.3742 C.3     1  UNL1        0.0443
      9 C          64.2799   84.9052   13.7438 C.3     1  UNL1        0.1011
     10 C          61.8868   80.5688   13.8686 C.3     1  UNL1        0.2573
     11 O          63.1397   81.1675   14.4359 O.3     1  UNL1       -0.4304
     12 C          63.9310   88.9736   15.6349 C.1     1  UNL1       -0.0583
     13 C          64.5593   90.1645   14.9736 C.1     1  UNL1       -0.0405
     14 C          65.1875   91.3553   14.3124 C.ar    1  UNL1        0.1224
     15 C          66.0536   92.2856   15.1092 C.ar    1  UNL1        0.0276
     16 C          66.6818   93.4764   14.4479 C.ar    1  UNL1        0.0034
     17 C          66.4441   93.7370   12.9900 C.ar    1  UNL1        0.0148
     18 C          65.5781   92.8068   12.1933 C.ar    1  UNL1        0.0600
     19 C          65.3404   93.0674   10.7353 C.3     1  UNL1        0.0521
     20 N          64.9498   91.6159   12.8545 N.ar    1  UNL1       -0.2414
@<TRIPOS>BOND
     1    10    11    1
     2    11     1    1
     3     1     2    2
     4     1     3   am
     5     3     4    1
     6     4     5    1
     7     5     6    1
     8     6     7    2
     9     7    12    1
    10    12    13    3
    11    13    14    1
    12    14    15   ar
    13    15    16   ar
    14    16    17   ar
    15    17    18   ar
    16    18    19    1
    17    18    20   ar
    18     6     8    1
    19     8     9    1
    20     9     3    1
    21    20    14   ar
@<TRIPOS>MOLECULE
*****
 20 21 0 0 0
SMALL
GASTEIGER

@<TRIPOS>ATOM
      1 C          63.7362   93.7247    0.6458 C.2     1  UNL1        0.4050
      2 O          65.0798   93.0877    0.8430 O.2     1  UNL1       -0.2262
      3 N          62.5833   93.3297    1.5204 N.am    1  UNL1       -0.2454
      4 C          61.2397   93.9667    1.3232 C.3     1  UNL1        0.1011
      5 C          60.0868   93.5718    2.1978 C.3     1  UNL1        0.0443
      6 C          60.2775   92.5398    3.2695 C.2     1  UNL1       -0.0326
      7 C          59.1246   92.1449    4.1441 C.2     1  UNL1        0.0412
      8 C          61.6211   91.9028    3.4667 C.3     1  UNL1        0.0443
      9 C          62.7740   92.2978    2.5921 C.3     1  UNL1        0.1011
     10 C          64.7385   95.3785   -1.0891 C.3     1  UNL1        0.2573
     11 O          63.5454   94.7566   -0.4260 O.3     1  UNL1       -0.4304
     12 C          59.3153   91.1129    5.2158 C.1     1  UNL1       -0.0583
     13 C          59.5061   90.0809    6.2876 C.1     1  UNL1       -0.0405
     14 C          59.6968   89.0490    7.3593 C.ar    1  UNL1        0.1224
     15 C          59.2042   87.6480    7.1478 C.ar    1  UNL1        0.0276
     16 C          59.3949   86.6161    8.2195 C.ar    1  UNL1        0.0034
     17 C          60.0782   86.9850    9.5028 C.ar    1  UNL1        0.0148
     18 C          60.5708   88.3859    9.7145 C.ar    1  UNL1        0.0600
     19 C          61.2541   88.7548   10.9978 C.3     1  UNL1        0.0521
     20 N          60.3801   89.4179    8.6427 N.ar    1  UNL1       -0.2414
@<TRIPOS>BOND
     1    10    11    1
     2    11     1    1
     3     1     2    2
     4     1     3   am
     5     3     4    1
     6     4     5    1
     7     5     6    1
     8     6     7    2
     9     7    12    1
    10    12    13    3
    11    13    14    1
    12    14    15   ar
    13    15    16   ar
    14    16    17   ar
    15    17    18   ar
    16    18    19    1
    17    18    20   ar
    18     6     8    1
    19     8     9    1
    20     9     3    1
    21    20    14   ar
@<TRIPOS>MOLECULE
*****
 20 21 0 0 0
SMALL
GASTEIGER

@<TRIPOS>ATOM
      1 C          62.3895   93.3394    1.2851 C.2     1  UNL1        0.4050
      2 O          63.8651   93.0719    1.3160 O.2     1  UNL1       -0.2262
      3 N          61.4963   92.7386    2.3297 N.am    1  UNL1       -0.2454
      4 C          60.0207   93.0060    2.2987 C.3     1  UNL1        0.1011
      5 C          59.1275   92.4052    3.3433 C.3     1  UNL1        0.0443
      6 C          59.7098   91.5368    4.4188 C.2     1  UNL1       -0.0326
      7 C          58.8166   90.9360    5.4634 C.2     1  UNL1        0.0412
      8 C          61.1854   91.2693    4.4497 C.3     1  UNL1        0.0443
      9 C          62.0787   91.8702    3.4052 C.3     1  UNL1        0.1011
     10 C          61.9533   93.8169   -1.2312 C.3     1  UNL1        0.2573
     11 O          61.8071   94.2078    0.2096 O.3     1  UNL1       -0.4304
     12 C          59.3990   90.0676    6.5389 C.1     1  UNL1       -0.0583
     13 C          59.9814   89.1992    7.6145 C.1     1  UNL1       -0.0405
     14 C          60.5638   88.3309    8.6900 C.ar    1  UNL1        0.1224
     15 C          60.3043   86.8534    8.6837 C.ar    1  UNL1        0.0276
     16 C          60.8867   85.9851    9.7592 C.ar    1  UNL1        0.0034
     17 C          61.7286   86.5941   10.8410 C.ar    1  UNL1        0.0148
     18 C          61.9881   88.0714   10.8474 C.ar    1  UNL1        0.0600
     19 C          62.8299   88.6804   11.9292 C.3     1  UNL1        0.0521
     20 N          61.4057   88.9399    9.7718 N.ar    1  UNL1       -0.2414
@<TRIPOS>BOND
     1    10    11    1
     2    11     1    1
     3     1     2    2
     4     1     3   am
     5     3     4    1
     6     4     5    1
     7     5     6    1
     8     6     7    2
     9     7    12    1
    10    12    13    3
    11    13    14    1
    12    14    15   ar
    13    15    16   ar
    14    16    17   ar
    15    17    18   ar
    16    18    19    1
    17    18    20   ar
    18     6     8    1
    19     8     9    1
    20     9     3    1
    21    20    14   ar
@<TRIPOS>MOLECULE
*****
 20 21 0 0 0
SMALL
GASTEIGER

@<TRIPOS>ATOM
      1 C          60.6631   93.1034    2.7499 C.2     1  UNL1        0.4050
      2 O          62.1119   93.0785    2.3623 O.2     1  UNL1       -0.2262
      3 N          60.1489   92.1542    3.7914 N.am    1  UNL1       -0.2454
      4 C          58.7001   92.1791    4.1790 C.3     1  UNL1        0.1011
      5 C          58.1859   91.2299    5.2205 C.3     1  UNL1        0.0443
      6 C          59.1206   90.2558    5.8743 C.2     1  UNL1       -0.0326
      7 C          58.6064   89.3065    6.9157 C.2     1  UNL1        0.0412
      8 C          60.5694   90.2308    5.4866 C.3     1  UNL1        0.0443
      9 C          61.0835   91.1801    4.4452 C.3     1  UNL1        0.1011
     10 C          59.2014   93.8024    0.7190 C.3     1  UNL1        0.2573
     11 O          59.7285   94.0775    2.0961 O.3     1  UNL1       -0.4304
     12 C          59.5410   88.3324    7.5695 C.1     1  UNL1       -0.0583
     13 C          60.4756   87.3582    8.2233 C.1     1  UNL1       -0.0405
     14 C          61.4103   86.3840    8.8771 C.ar    1  UNL1        0.1224
     15 C          62.3722   85.5917    8.0422 C.ar    1  UNL1        0.0276
     16 C          63.3068   84.6176    8.6960 C.ar    1  UNL1        0.0034
     17 C          63.2796   84.4357   10.1847 C.ar    1  UNL1        0.0148
     18 C          62.3177   85.2280   11.0196 C.ar    1  UNL1        0.0600
     19 C          62.2904   85.0461   12.5083 C.3     1  UNL1        0.0521
     20 N          61.3830   86.2022   10.3658 N.ar    1  UNL1       -0.2414
@<TRIPOS>BOND
     1    10    11    1
     2    11     1    1
     3     1     2    2
     4     1     3   am
     5     3     4    1
     6     4     5    1
     7     5     6    1
     8     6     7    2
     9     7    12    1
    10    12    13    3
    11    13    14    1
    12    14    15   ar
    13    15    16   ar
    14    16    17   ar
    15    17    18   ar
    16    18    19    1
    17    18    20   ar
    18     6     8    1
    19     8     9    1
    20     9     3    1
    21    20    14   ar
@<TRIPOS>MOLECULE
*****
 20 21 0 0 0
SMALL
GASTEIGER

@<TRIPOS>ATOM
      1 C          70.0170   74.3658   16.1109 C.2     1  UNL1        0.4050
      2 O          68.7383   75.0819   16.4305 O.2     1  UNL1       -0.2262
      3 N          70.9210   74.8895   15.0344 N.am    1  UNL1       -0.2454
      4 C          72.1997   74.1735   14.7148 C.3     1  UNL1        0.1011
      5 C          73.1036   74.6971   13.6384 C.3     1  UNL1        0.0443
      6 C          72.7289   75.9368   12.8816 C.2     1  UNL1       -0.0326
      7 C          73.6328   76.4604   11.8052 C.2     1  UNL1        0.0412
      8 C          71.4502   76.6528   13.2012 C.3     1  UNL1        0.0443
      9 C          70.5462   76.1291   14.2777 C.3     1  UNL1        0.1011
     10 C          70.9124   73.2324   18.2704 C.3     1  UNL1        0.2573
     11 O          70.3917   73.1262   16.8676 O.3     1  UNL1       -0.4304
     12 C          73.2581   77.7001   11.0484 C.1     1  UNL1       -0.0583
     13 C          72.8834   78.9398   10.2916 C.1     1  UNL1       -0.0405
     14 C          72.5086   80.1795    9.5348 C.ar    1  UNL1        0.1224
     15 C          72.5056   81.5095   10.2284 C.ar    1  UNL1        0.0276
     16 C          72.1308   82.7492    9.4717 C.ar    1  UNL1        0.0034
     17 C          71.7591   82.6589    8.0213 C.ar    1  UNL1        0.0148
     18 C          71.7621   81.3289    7.3276 C.ar    1  UNL1        0.0600
     19 C          71.3904   81.2386    5.8772 C.3     1  UNL1        0.0521
     20 N          72.1369   80.0892    8.0844 N.ar    1  UNL1       -0.2414
@<TRIPOS>BOND
     1    10    11    1
     2    11     1    1
     3     1     2    2
     4     1     3   am
     5     3     4    1
     6     4     5    1
     7     5     6    1
     8     6     7    2
     9     7    12    1
    10    12    13    3
    11    13    14    1
    12    14    15   ar
    13    15    16   ar
    14    16    17   ar
    15    17    18   ar
    16    18    19    1
    17    18    20   ar
    18     6     8    1
    19     8     9    1
    20     9     3    1
    21    20    14   ar
@<TRIPOS>MOLECULE
*****
 20 21 0 0 0
SMALL
GASTEIGER

@<TRIPOS>ATOM
      1 C          46.7223   78.5382   19.6593 C.2     1  UNL1        0.4050
      2 O          47.7330   79.0209   18.6617 O.2     1  UNL1       -0.2262
      3 N          46.0559   77.2080   19.4683 N.am    1  UNL1       -0.2454
      4 C          45.0452   76.7253   20.4659 C.3     1  UNL1        0.1011
      5 C          44.3788   75.3950   20.2749 C.3     1  UNL1        0.0443
      6 C          44.7232   74.5475   19.0861 C.2     1  UNL1       -0.0326
      7 C          44.0569   73.2173   18.8951 C.2     1  UNL1        0.0412
      8 C          45.7340   75.0302   18.0885 C.3     1  UNL1        0.0443
      9 C          46.4003   76.3605   18.2796 C.3     1  UNL1        0.1011
     10 C          45.4774   80.5744   20.6861 C.3     1  UNL1        0.2573
     11 O          46.3779   79.3857   20.8480 O.3     1  UNL1       -0.4304
     12 C          44.4013   72.3698   17.7064 C.1     1  UNL1       -0.0583
     13 C          44.7457   71.5222   16.5176 C.1     1  UNL1       -0.0405
     14 C          45.0901   70.6747   15.3289 C.ar    1  UNL1        0.1224
     15 C          46.3347   69.8374   15.3400 C.ar    1  UNL1        0.0276
     16 C          46.6791   68.9899   14.1513 C.ar    1  UNL1        0.0034
     17 C          45.7790   68.9796   12.9515 C.ar    1  UNL1        0.0148
     18 C          44.5345   69.8169   12.9403 C.ar    1  UNL1        0.0600
     19 C          43.6344   69.8066   11.7404 C.3     1  UNL1        0.0521
     20 N          44.1900   70.6644   14.1290 N.ar    1  UNL1       -0.2414
@<TRIPOS>BOND
     1    10    11    1
     2    11     1    1
     3     1     2    2
     4     1     3   am
     5     3     4    1
     6     4     5    1
     7     5     6    1
     8     6     7    2
     9     7    12    1
    10    12    13    3
    11    13    14    1
    12    14    15   ar
    13    15    16   ar
    14    16    17   ar
    15    17    18   ar
    16    18    19    1
    17    18    20   ar
    18     6     8    1
    19     8     9    1
    20     9     3    1
    21    20    14   ar
@<TRIPOS>MOLECULE
*****
 20 21 0 0 0
SMALL
GASTEIGER

@<TRIPOS>ATOM
      1 C          72.4212   80.2092   10.3306 C.2     1  UNL1        0.4050
      2 O          72.1452   79.7871    8.9180 O.2     1  UNL1       -0.2262
      3 N          72.3047   79.2144   11.4471 N.am    1  UNL1       -0.2454
      4 C          72.5808   79.6365   12.8597 C.3     1  UNL1        0.1011
      5 C          72.4643   78.6417   13.9763 C.3     1  UNL1        0.0443
      6 C          72.0717   77.2246   13.6802 C.2     1  UNL1       -0.0326
      7 C          71.9552   76.2297   14.7967 C.2     1  UNL1        0.0412
      8 C          71.7957   76.8024   12.2676 C.3     1  UNL1        0.0443
      9 C          71.9122   77.7973   11.1511 C.3     1  UNL1        0.1011
     10 C          72.4587   82.7199    9.6633 C.3     1  UNL1        0.2573
     11 O          72.8138   81.6263   10.6267 O.3     1  UNL1       -0.4304
     12 C          71.5627   74.8126   14.5006 C.1     1  UNL1       -0.0583
     13 C          71.1701   73.3954   14.2045 C.1     1  UNL1       -0.0405
     14 C          70.7775   71.9783   13.9085 C.ar    1  UNL1        0.1224
     15 C          71.4511   70.8475   14.6279 C.ar    1  UNL1        0.0276
     16 C          71.0585   69.4304   14.3319 C.ar    1  UNL1        0.0034
     17 C          69.9924   69.1441   13.3163 C.ar    1  UNL1        0.0148
     18 C          69.3188   70.2748   12.5969 C.ar    1  UNL1        0.0600
     19 C          68.2526   69.9885   11.5813 C.3     1  UNL1        0.0521
     20 N          69.7114   71.6920   12.8929 N.ar    1  UNL1       -0.2414
@<TRIPOS>BOND
     1    10    11    1
     2    11     1    1
     3     1     2    2
     4     1     3   am
     5     3     4    1
     6     4     5    1
     7     5     6    1
     8     6     7    2
     9     7    12    1
    10    12    13    3
    11    13    14    1
    12    14    15   ar
    13    15    16   ar
    14    16    17   ar
    15    17    18   ar
    16    18    19    1
    17    18    20   ar
    18     6     8    1
    19     8     9    1
    20     9     3    1
    21    20    14   ar
@<TRIPOS>MOLECULE
*****
 20 21 0 0 0
SMALL
GASTEIGER

@<TRIPOS>ATOM
      1 C          54.1927   89.9302   -5.9822 C.2     1  UNL1        0.4050
      2 O          53.7228   88.8192   -5.0907 O.2     1  UNL1       -0.2262
      3 N          55.2660   90.8664   -5.5116 N.am    1  UNL1       -0.2454
      4 C          55.7359   91.9774   -6.4031 C.3     1  UNL1        0.1011
      5 C          56.8092   92.9137   -5.9325 C.3     1  UNL1        0.0443
      6 C          57.4125   92.7390   -4.5704 C.2     1  UNL1       -0.0326
      7 C          58.4858   93.6753   -4.0997 C.2     1  UNL1        0.0412
      8 C          56.9426   91.6280   -3.6789 C.3     1  UNL1        0.0443
      9 C          55.8693   90.6917   -4.1495 C.3     1  UNL1        0.1011
     10 C          52.1322   89.8227   -7.5610 C.3     1  UNL1        0.2573
     11 O          53.5894   90.1049   -7.3443 O.3     1  UNL1       -0.4304
     12 C          59.0891   93.5006   -2.7376 C.1     1  UNL1       -0.0583
     13 C          59.6926   93.3258   -1.3754 C.1     1  UNL1       -0.0405
     14 C          60.2959   93.1511   -0.0133 C.ar    1  UNL1        0.1224
     15 C          59.4155   93.1395    1.2011 C.ar    1  UNL1        0.0276
     16 C          60.0188   92.9648    2.5632 C.ar    1  UNL1        0.0034
     17 C          61.5026   92.8017    2.7110 C.ar    1  UNL1        0.0148
     18 C          62.3830   92.8133    1.4967 C.ar    1  UNL1        0.0600
     19 C          63.8668   92.6502    1.6444 C.3     1  UNL1        0.0521
     20 N          61.7797   92.9880    0.1344 N.ar    1  UNL1       -0.2414
@<TRIPOS>BOND
     1    10    11    1
     2    11     1    1
     3     1     2    2
     4     1     3   am
     5     3     4    1
     6     4     5    1
     7     5     6    1
     8     6     7    2
     9     7    12    1
    10    12    13    3
    11    13    14    1
    12    14    15   ar
    13    15    16   ar
    14    16    17   ar
    15    17    18   ar
    16    18    19    1
    17    18    20   ar
    18     6     8    1
    19     8     9    1
    20     9     3    1
    21    20    14   ar
@<TRIPOS>MOLECULE
*****
 20 21 0 0 0
SMALL
GASTEIGER

@<TRIPOS>ATOM
      1 C          53.6832   96.0397   -2.4382 C.2     1  UNL1        0.4050
      2 O          53.3781   96.7767   -1.1679 O.2     1  UNL1       -0.2262
      3 N          54.9956   95.3311   -2.5976 N.am    1  UNL1       -0.2454
      4 C          55.3006   94.5941   -3.8679 C.3     1  UNL1        0.1011
      5 C          56.6130   93.8855   -4.0273 C.3     1  UNL1        0.0443
      6 C          57.6205   93.9139   -2.9164 C.2     1  UNL1       -0.0326
      7 C          58.9329   93.2053   -3.0757 C.2     1  UNL1        0.0412
      8 C          57.3155   94.6509   -1.6460 C.3     1  UNL1        0.0443
      9 C          56.0030   95.3595   -1.4867 C.3     1  UNL1        0.1011
     10 C          51.2114   96.1003   -3.2362 C.3     1  UNL1        0.2573
     11 O          52.6757   96.0113   -3.5492 O.3     1  UNL1       -0.4304
     12 C          59.9403   93.2337   -1.9648 C.1     1  UNL1       -0.0583
     13 C          60.9479   93.2621   -0.8538 C.1     1  UNL1       -0.0405
     14 C          61.9553   93.2905    0.2571 C.ar    1  UNL1        0.1224
     15 C          62.8257   94.4969    0.4496 C.ar    1  UNL1        0.0276
     16 C          63.8332   94.5254    1.5605 C.ar    1  UNL1        0.0034
     17 C          63.9702   93.3474    2.4790 C.ar    1  UNL1        0.0148
     18 C          63.0999   92.1410    2.2866 C.ar    1  UNL1        0.0600
     19 C          63.2369   90.9631    3.2051 C.3     1  UNL1        0.0521
     20 N          62.0924   92.1126    1.1756 N.ar    1  UNL1       -0.2414
@<TRIPOS>BOND
     1    10    11    1
     2    11     1    1
     3     1     2    2
     4     1     3   am
     5     3     4    1
     6     4     5    1
     7     5     6    1
     8     6     7    2
     9     7    12    1
    10    12    13    3
    11    13    14    1
    12    14    15   ar
    13    15    16   ar
    14    16    17   ar
    15    17    18   ar
    16    18    19    1
    17    18    20   ar
    18     6     8    1
    19     8     9    1
    20     9     3    1
    21    20    14   ar
