@<TRIPOS>MOLECULE
*****
 33 35 0 0 0
SMALL
GASTEIGER

@<TRIPOS>ATOM
      1 C          61.6117   90.0243   11.4193 C.ar    1  UNL1        0.1383
      2 C          62.1612   90.6040   10.1497 C.ar    1  UNL1        0.0366
      3 C          63.4519   91.3679   10.1710 C.ar    1  UNL1       -0.0015
      4 C          64.1932   91.5520   11.4619 C.ar    1  UNL1       -0.0259
      5 C          63.6438   90.9723   12.7316 C.ar    1  UNL1       -0.0218
      6 C          62.3530   90.2084   12.7102 C.ar    1  UNL1        0.0324
      7 C          64.3851   91.1564   14.0226 C.3     1  UNL1        0.0406
      8 C          65.6758   91.9203   14.0439 C.3     1  UNL1        0.0555
      9 N          66.4171   92.1044   15.3348 N.3     1  UNL1       -0.3219
     10 C          66.2253   92.5001   12.7742 C.3     1  UNL1        0.0205
     11 C          65.4840   92.3159   11.4832 C.3     1  UNL1        0.0274
     12 H          67.2663   92.6435   15.1653 H       1  UNL1        0.1188
     13 H          66.6644   91.1921   15.7180 H       1  UNL1        0.1188
     14 O          60.3210   89.2604   11.3980 O.3     1  UNL1       -0.4739
     15 C          60.0932   88.2015   10.3604 C.3     1  UNL1        0.2241
     16 C          60.9791   86.9919   10.3161 C.3     1  UNL1        0.1383
     17 N          61.3522   86.2886   11.5875 N.3     1  UNL1       -0.1795
     18 H          61.7327   86.9969   12.2151 H       1  UNL1        0.1486
     19 S          62.3400   85.1602   11.5583 S.O2    1  UNL1        0.0409
     20 O          62.2092   85.0071   13.0447 O.2     1  UNL1       -0.1575
     21 O          62.4709   85.3132   10.0719 O.2     1  UNL1       -0.1575
     22 C          63.3279   84.0318   11.5291 C.3     1  UNL1        0.1688
     23 C          62.6262   81.6405   12.2634 C.3     1  UNL1        0.0019
     24 C          63.2714   82.9582   12.5752 C.3     1  UNL1        0.0270
     25 C          63.8356   90.5767   15.2922 C.3     1  UNL1        0.0320
     26 C          63.8323   89.0909   15.4984 C.ar    1  UNL1       -0.0209
     27 C          64.4831   88.1921   14.4891 C.ar    1  UNL1       -0.0033
     28 C          64.4798   86.7064   14.6953 C.ar    1  UNL1        0.0119
     29 C          63.8257   86.1194   15.9109 C.ar    1  UNL1        0.0682
     30 CL         63.8224   84.6336   16.1171 Cl      1  UNL1       -0.0814
     31 C          63.1749   87.0181   16.9202 C.ar    1  UNL1        0.0679
     32 CL         62.5208   86.4312   18.1358 Cl      1  UNL1       -0.0814
     33 C          63.1782   88.5039   16.7140 C.ar    1  UNL1        0.0080
@<TRIPOS>BOND
     1    23    24    1
     2    24    22    1
     3    22    19    1
     4    19    20    2
     5    19    21    2
     6    19    17    1
     7    17    16    1
     8    16    15    1
     9    15    14    1
    10    14     1    1
    11     1     2   ar
    12     2     3   ar
    13     3     4   ar
    14     4     5   ar
    15     5     6   ar
    16     5     7    1
    17     7    25    1
    18    25    26    1
    19    26    27   ar
    20    27    28   ar
    21    28    29   ar
    22    29    30    1
    23    29    31   ar
    24    31    32    1
    25    31    33   ar
    26     7     8    1
    27     8     9    1
    28     8    10    1
    29    10    11    1
    30     6     1   ar
    31    33    26   ar
    32    11     4    1
    33    17    18    1
    34     9    12    1
    35     9    13    1
@<TRIPOS>MOLECULE
*****
 33 35 0 0 0
SMALL
GASTEIGER

@<TRIPOS>ATOM
      1 C          62.3748   89.3480   11.2966 C.ar    1  UNL1        0.1383
      2 C          61.0957   90.1257   11.2022 C.ar    1  UNL1        0.0366
      3 C          60.0127   89.6773   10.2662 C.ar    1  UNL1       -0.0015
      4 C          60.2088   88.4513    9.4246 C.ar    1  UNL1       -0.0259
      5 C          61.4879   87.6735    9.5191 C.ar    1  UNL1       -0.0218
      6 C          62.5709   88.1219   10.4551 C.ar    1  UNL1        0.0324
      7 C          61.6840   86.4474    8.6776 C.3     1  UNL1        0.0406
      8 C          60.6010   85.9990    7.7416 C.3     1  UNL1        0.0555
      9 N          60.7971   84.7729    6.9000 N.3     1  UNL1       -0.3219
     10 C          59.3218   86.7768    7.6471 C.3     1  UNL1        0.0205
     11 C          59.1257   88.0029    8.4887 C.3     1  UNL1        0.0274
     12 H          59.9672   84.6170    6.3279 H       1  UNL1        0.1188
     13 H          60.9495   83.9661    7.5051 H       1  UNL1        0.1188
     14 O          63.4578   89.7963   12.2326 O.3     1  UNL1       -0.4739
     15 C          63.6223   91.2539   12.5460 C.3     1  UNL1        0.2241
     16 C          64.8391   91.9907   12.0703 C.3     1  UNL1        0.1383
     17 N          65.5964   92.8767   13.0147 N.3     1  UNL1       -0.1795
     18 H          66.1291   93.5310   12.4415 H       1  UNL1        0.1486
     19 S          66.5595   92.2772   13.9960 S.O2    1  UNL1        0.0409
     20 O          65.5491   92.4472   15.0915 O.2     1  UNL1       -0.1575
     21 O          67.5700   92.1073   12.9005 O.2     1  UNL1       -0.1575
     22 C          67.5227   91.6778   14.9774 C.3     1  UNL1        0.1688
     23 C          68.8678   93.7020   15.8957 C.3     1  UNL1        0.0019
     24 C          68.0155   92.4915   16.1372 C.3     1  UNL1        0.0270
     25 C          62.9631   85.6696    8.7720 C.3     1  UNL1        0.0320
     26 C          63.1528   84.6688    9.8731 C.ar    1  UNL1       -0.0209
     27 C          63.8874   83.3888    9.6049 C.ar    1  UNL1       -0.0033
     28 C          64.0771   82.3880   10.7060 C.ar    1  UNL1        0.0119
     29 C          63.5320   82.6672   12.0753 C.ar    1  UNL1        0.0682
     30 CL         63.7217   81.6663   13.1764 Cl      1  UNL1       -0.0814
     31 C          62.7974   83.9471   12.3435 C.ar    1  UNL1        0.0679
     32 CL         62.2524   84.2263   13.7128 Cl      1  UNL1       -0.0814
     33 C          62.6078   84.9479   11.2425 C.ar    1  UNL1        0.0080
@<TRIPOS>BOND
     1    23    24    1
     2    24    22    1
     3    22    19    1
     4    19    20    2
     5    19    21    2
     6    19    17    1
     7    17    16    1
     8    16    15    1
     9    15    14    1
    10    14     1    1
    11     1     2   ar
    12     2     3   ar
    13     3     4   ar
    14     4     5   ar
    15     5     6   ar
    16     5     7    1
    17     7    25    1
    18    25    26    1
    19    26    27   ar
    20    27    28   ar
    21    28    29   ar
    22    29    30    1
    23    29    31   ar
    24    31    32    1
    25    31    33   ar
    26     7     8    1
    27     8     9    1
    28     8    10    1
    29    10    11    1
    30     6     1   ar
    31    33    26   ar
    32    11     4    1
    33    17    18    1
    34     9    12    1
    35     9    13    1
@<TRIPOS>MOLECULE
*****
 33 35 0 0 0
SMALL
GASTEIGER

@<TRIPOS>ATOM
      1 C          62.1164   89.0222   11.7351 C.ar    1  UNL1        0.1383
      2 C          60.8270   89.7774   11.6042 C.ar    1  UNL1        0.0366
      3 C          59.8351   89.3904   10.5477 C.ar    1  UNL1       -0.0015
      4 C          60.1326   88.2482    9.6220 C.ar    1  UNL1       -0.0259
      5 C          61.4220   87.4931    9.7529 C.ar    1  UNL1       -0.0218
      6 C          62.4139   87.8801   10.8095 C.ar    1  UNL1        0.0324
      7 C          61.7195   86.3508    8.8272 C.3     1  UNL1        0.0406
      8 C          60.7276   85.9639    7.7706 C.3     1  UNL1        0.0555
      9 N          61.0251   84.8217    6.8449 N.3     1  UNL1       -0.3219
     10 C          59.4382   86.7191    7.6397 C.3     1  UNL1        0.0205
     11 C          59.1407   87.8612    8.5654 C.3     1  UNL1        0.0274
     12 H          60.2481   84.6991    6.1955 H       1  UNL1        0.1188
     13 H          61.1520   83.9679    7.3882 H       1  UNL1        0.1188
     14 O          63.1083   89.4092   12.7917 O.3     1  UNL1       -0.4739
     15 C          63.3649   90.8576   13.0851 C.3     1  UNL1        0.2241
     16 C          64.7714   91.3775   13.1227 C.3     1  UNL1        0.1383
     17 N          65.0656   92.7780   12.6729 N.3     1  UNL1       -0.1795
     18 H          64.1759   93.1902   12.3922 H       1  UNL1        0.1486
     19 S          66.0281   93.0177   11.5477 S.O2    1  UNL1        0.0409
     20 O          64.9940   92.5548   10.5646 O.2     1  UNL1       -0.1575
     21 O          67.0622   93.4805   12.5308 O.2     1  UNL1       -0.1575
     22 C          66.9906   93.2574   10.4224 C.3     1  UNL1        0.1688
     23 C          68.8038   92.3629    8.7908 C.3     1  UNL1        0.0019
     24 C          67.9308   92.1694    9.9951 C.3     1  UNL1        0.0270
     25 C          63.0089   85.5957    8.9581 C.3     1  UNL1        0.0320
     26 C          63.1512   84.5303   10.0045 C.ar    1  UNL1       -0.0209
     27 C          63.8128   83.2280    9.6637 C.ar    1  UNL1       -0.0033
     28 C          63.9551   82.1628   10.7101 C.ar    1  UNL1        0.0119
     29 C          63.4359   82.3999   12.0972 C.ar    1  UNL1        0.0682
     30 CL         63.5783   81.3345   13.1436 Cl      1  UNL1       -0.0814
     31 C          62.7744   83.7022   12.4380 C.ar    1  UNL1        0.0679
     32 CL         62.2551   83.9393   13.8251 Cl      1  UNL1       -0.0814
     33 C          62.6320   84.7675   11.3916 C.ar    1  UNL1        0.0080
@<TRIPOS>BOND
     1    23    24    1
     2    24    22    1
     3    22    19    1
     4    19    20    2
     5    19    21    2
     6    19    17    1
     7    17    16    1
     8    16    15    1
     9    15    14    1
    10    14     1    1
    11     1     2   ar
    12     2     3   ar
    13     3     4   ar
    14     4     5   ar
    15     5     6   ar
    16     5     7    1
    17     7    25    1
    18    25    26    1
    19    26    27   ar
    20    27    28   ar
    21    28    29   ar
    22    29    30    1
    23    29    31   ar
    24    31    32    1
    25    31    33   ar
    26     7     8    1
    27     8     9    1
    28     8    10    1
    29    10    11    1
    30     6     1   ar
    31    33    26   ar
    32    11     4    1
    33    17    18    1
    34     9    12    1
    35     9    13    1
@<TRIPOS>MOLECULE
*****
 33 35 0 0 0
SMALL
GASTEIGER

@<TRIPOS>ATOM
      1 C          63.2898   85.4777   12.4111 C.ar    1  UNL1        0.1383
      2 C          63.0782   84.4553   11.3342 C.ar    1  UNL1        0.0366
      3 C          62.3009   84.8134   10.1023 C.ar    1  UNL1       -0.0015
      4 C          61.7352   86.1939    9.9473 C.ar    1  UNL1       -0.0259
      5 C          61.9468   87.2164   11.0242 C.ar    1  UNL1       -0.0218
      6 C          62.7241   86.8583   12.2561 C.ar    1  UNL1        0.0324
      7 C          61.3811   88.5970   10.8693 C.3     1  UNL1        0.0406
      8 C          60.6038   88.9551    9.6374 C.3     1  UNL1        0.0555
      9 N          60.0381   90.3356    9.4824 N.3     1  UNL1       -0.3219
     10 C          60.3922   87.9325    8.5604 C.3     1  UNL1        0.0205
     11 C          60.9580   86.5520    8.7154 C.3     1  UNL1        0.0274
     12 H          59.5438   90.4026    8.5926 H       1  UNL1        0.1188
     13 H          60.7960   91.0179    9.5025 H       1  UNL1        0.1188
     14 O          64.0671   85.1196   13.6430 O.3     1  UNL1       -0.4739
     15 C          63.3450   84.7817   14.9136 C.3     1  UNL1        0.2241
     16 C          62.3208   83.6859   14.9255 C.3     1  UNL1        0.1383
     17 N          62.7550   82.2546   15.0388 N.3     1  UNL1       -0.1795
     18 H          63.7379   82.2658   15.3113 H       1  UNL1        0.1486
     19 S          62.6445   81.3413   13.8540 S.O2    1  UNL1        0.0409
     20 O          64.0845   81.5983   13.5216 O.2     1  UNL1       -0.1575
     21 O          61.2046   81.0842   14.1865 O.2     1  UNL1       -0.1575
     22 C          62.5340   80.4280   12.6692 C.3     1  UNL1        0.1688
     23 C          62.9389   79.9798   10.1423 C.3     1  UNL1        0.0019
     24 C          62.8742   80.9333   11.2984 C.3     1  UNL1        0.0270
     25 C          61.5926   89.6194   11.9462 C.3     1  UNL1        0.0320
     26 C          62.8442   90.4461   11.9601 C.ar    1  UNL1       -0.0209
     27 C          63.2633   91.1932   10.7288 C.ar    1  UNL1       -0.0033
     28 C          64.5148   92.0199   10.7427 C.ar    1  UNL1        0.0119
     29 C          65.3473   92.0995   11.9879 C.ar    1  UNL1        0.0682
     30 CL         66.5989   92.9262   12.0018 Cl      1  UNL1       -0.0814
     31 C          64.9282   91.3524   13.2193 C.ar    1  UNL1        0.0679
     32 CL         65.7607   91.4320   14.4645 Cl      1  UNL1       -0.0814
     33 C          63.6767   90.5258   13.2053 C.ar    1  UNL1        0.0080
@<TRIPOS>BOND
     1    23    24    1
     2    24    22    1
     3    22    19    1
     4    19    20    2
     5    19    21    2
     6    19    17    1
     7    17    16    1
     8    16    15    1
     9    15    14    1
    10    14     1    1
    11     1     2   ar
    12     2     3   ar
    13     3     4   ar
    14     4     5   ar
    15     5     6   ar
    16     5     7    1
    17     7    25    1
    18    25    26    1
    19    26    27   ar
    20    27    28   ar
    21    28    29   ar
    22    29    30    1
    23    29    31   ar
    24    31    32    1
    25    31    33   ar
    26     7     8    1
    27     8     9    1
    28     8    10    1
    29    10    11    1
    30     6     1   ar
    31    33    26   ar
    32    11     4    1
    33    17    18    1
    34     9    12    1
    35     9    13    1
@<TRIPOS>MOLECULE
*****
 33 35 0 0 0
SMALL
GASTEIGER

@<TRIPOS>ATOM
      1 C          62.3146   89.2222   11.1806 C.ar    1  UNL1        0.1383
      2 C          61.0327   89.9950   11.0831 C.ar    1  UNL1        0.0366
      3 C          59.9563   89.5464   10.1396 C.ar    1  UNL1       -0.0015
      4 C          60.1618   88.3249    9.2937 C.ar    1  UNL1       -0.0259
      5 C          61.4437   87.5520    9.3912 C.ar    1  UNL1       -0.0218
      6 C          62.5200   88.0007   10.3346 C.ar    1  UNL1        0.0324
      7 C          61.6492   86.3304    8.5452 C.3     1  UNL1        0.0406
      8 C          60.5728   85.8818    7.6017 C.3     1  UNL1        0.0555
      9 N          60.7783   84.6603    6.7558 N.3     1  UNL1       -0.3219
     10 C          59.2909   86.6547    7.5042 C.3     1  UNL1        0.0205
     11 C          59.0854   87.8762    8.3502 C.3     1  UNL1        0.0274
     12 H          59.9520   84.5034    6.1787 H       1  UNL1        0.1188
     13 H          60.9309   83.8513    7.3581 H       1  UNL1        0.1188
     14 O          63.3909   89.6708   12.1240 O.3     1  UNL1       -0.4739
     15 C          63.4905   91.1153   12.5160 C.3     1  UNL1        0.2241
     16 C          64.3781   91.5242   13.6540 C.3     1  UNL1        0.1383
     17 N          64.9107   90.4884   14.5993 N.3     1  UNL1       -0.1795
     18 H          65.3676   89.7766   14.0292 H       1  UNL1        0.1486
     19 S          63.9768   89.7675   15.5257 S.O2    1  UNL1        0.0409
     20 O          64.3596   88.4614   14.8952 O.2     1  UNL1       -0.1575
     21 O          63.5939   91.0736   16.1561 O.2     1  UNL1       -0.1575
     22 C          63.0429   89.0466   16.4520 C.3     1  UNL1        0.1688
     23 C          62.5930   86.9574   17.9295 C.3     1  UNL1        0.0019
     24 C          63.2447   87.5872   16.7342 C.3     1  UNL1        0.0270
     25 C          62.9310   85.5576    8.6427 C.3     1  UNL1        0.0320
     26 C          63.1514   84.6116    9.7858 C.ar    1  UNL1       -0.0209
     27 C          63.9038   83.3327    9.5666 C.ar    1  UNL1       -0.0033
     28 C          64.1241   82.3867   10.7096 C.ar    1  UNL1        0.0119
     29 C          63.5920   82.7198   12.0720 C.ar    1  UNL1        0.0682
     30 CL         63.8123   81.7738   13.2151 Cl      1  UNL1       -0.0814
     31 C          62.8396   83.9987   12.2912 C.ar    1  UNL1        0.0679
     32 CL         62.3074   84.3317   13.6535 Cl      1  UNL1       -0.0814
     33 C          62.6192   84.9446   11.1482 C.ar    1  UNL1        0.0080
@<TRIPOS>BOND
     1    23    24    1
     2    24    22    1
     3    22    19    1
     4    19    20    2
     5    19    21    2
     6    19    17    1
     7    17    16    1
     8    16    15    1
     9    15    14    1
    10    14     1    1
    11     1     2   ar
    12     2     3   ar
    13     3     4   ar
    14     4     5   ar
    15     5     6   ar
    16     5     7    1
    17     7    25    1
    18    25    26    1
    19    26    27   ar
    20    27    28   ar
    21    28    29   ar
    22    29    30    1
    23    29    31   ar
    24    31    32    1
    25    31    33   ar
    26     7     8    1
    27     8     9    1
    28     8    10    1
    29    10    11    1
    30     6     1   ar
    31    33    26   ar
    32    11     4    1
    33    17    18    1
    34     9    12    1
    35     9    13    1
@<TRIPOS>MOLECULE
*****
 33 35 0 0 0
SMALL
GASTEIGER

@<TRIPOS>ATOM
      1 C          63.7162   85.8788   14.7801 C.ar    1  UNL1        0.1383
      2 C          63.2647   85.0611   15.9537 C.ar    1  UNL1        0.0366
      3 C          62.8753   83.6253   15.7621 C.ar    1  UNL1       -0.0015
      4 C          62.9374   83.0071   14.3969 C.ar    1  UNL1       -0.0259
      5 C          63.3889   83.8248   13.2232 C.ar    1  UNL1       -0.0218
      6 C          63.7783   85.2606   13.4148 C.ar    1  UNL1        0.0324
      7 C          63.4510   83.2066   11.8579 C.3     1  UNL1        0.0406
      8 C          63.0616   81.7708   11.6663 C.3     1  UNL1        0.0555
      9 N          63.1237   81.1526   10.3010 N.3     1  UNL1       -0.3219
     10 C          62.6100   80.9531   12.8400 C.3     1  UNL1        0.0205
     11 C          62.5479   81.5712   14.2053 C.3     1  UNL1        0.0274
     12 H          62.8265   80.1783   10.3551 H       1  UNL1        0.1188
     13 H          64.0806   81.1972    9.9508 H       1  UNL1        0.1188
     14 O          64.1057   87.3146   14.9717 O.3     1  UNL1       -0.4739
     15 C          63.5788   88.0842   16.1464 C.3     1  UNL1        0.2241
     16 C          63.2035   89.5281   15.9898 C.3     1  UNL1        0.1383
     17 N          62.7850   90.0530   14.6484 N.3     1  UNL1       -0.1795
     18 H          62.5020   89.2464   14.0918 H       1  UNL1        0.1486
     19 S          63.7545   90.8362   13.8138 S.O2    1  UNL1        0.0409
     20 O          64.2456   91.5395   15.0443 O.2     1  UNL1       -0.1575
     21 O          63.2635   90.1330   12.5832 O.2     1  UNL1       -0.1575
     22 C          64.7241   91.6195   12.9792 C.3     1  UNL1        0.1688
     23 C          65.2459   92.7756   10.7117 C.3     1  UNL1        0.0019
     24 C          64.5286   91.7164   11.4951 C.3     1  UNL1        0.0270
     25 C          63.9025   84.0243   10.6842 C.3     1  UNL1        0.0320
     26 C          62.9106   84.8491    9.9187 C.ar    1  UNL1       -0.0209
     27 C          62.8257   84.7258    8.4262 C.ar    1  UNL1       -0.0033
     28 C          61.8339   85.5506    7.6608 C.ar    1  UNL1        0.0119
     29 C          60.9270   86.4987    8.3878 C.ar    1  UNL1        0.0682
     30 CL         59.9351   87.3235    7.6223 Cl      1  UNL1       -0.0814
     31 C          61.0119   86.6220    9.8803 C.ar    1  UNL1        0.0679
     32 CL         60.1050   87.5701   10.6074 Cl      1  UNL1       -0.0814
     33 C          62.0037   85.7972   10.6457 C.ar    1  UNL1        0.0080
@<TRIPOS>BOND
     1    23    24    1
     2    24    22    1
     3    22    19    1
     4    19    20    2
     5    19    21    2
     6    19    17    1
     7    17    16    1
     8    16    15    1
     9    15    14    1
    10    14     1    1
    11     1     2   ar
    12     2     3   ar
    13     3     4   ar
    14     4     5   ar
    15     5     6   ar
    16     5     7    1
    17     7    25    1
    18    25    26    1
    19    26    27   ar
    20    27    28   ar
    21    28    29   ar
    22    29    30    1
    23    29    31   ar
    24    31    32    1
    25    31    33   ar
    26     7     8    1
    27     8     9    1
    28     8    10    1
    29    10    11    1
    30     6     1   ar
    31    33    26   ar
    32    11     4    1
    33    17    18    1
    34     9    12    1
    35     9    13    1
@<TRIPOS>MOLECULE
*****
 33 35 0 0 0
SMALL
GASTEIGER

@<TRIPOS>ATOM
      1 C          63.5383   85.8778   14.8674 C.ar    1  UNL1        0.1383
      2 C          63.0834   85.0210   16.0114 C.ar    1  UNL1        0.0366
      3 C          62.7583   83.5746   15.7822 C.ar    1  UNL1       -0.0015
      4 C          62.8882   82.9852   14.4090 C.ar    1  UNL1       -0.0259
      5 C          63.3431   83.8421   13.2651 C.ar    1  UNL1       -0.0218
      6 C          63.6682   85.2884   13.4942 C.ar    1  UNL1        0.0324
      7 C          63.4730   83.2527   11.8918 C.3     1  UNL1        0.0406
      8 C          63.1480   81.8064   11.6626 C.3     1  UNL1        0.0555
      9 N          63.2779   81.2169   10.2894 N.3     1  UNL1       -0.3219
     10 C          62.6931   80.9495   12.8067 C.3     1  UNL1        0.0205
     11 C          62.5632   81.5389   14.1798 C.3     1  UNL1        0.0274
     12 H          63.0186   80.2308   10.3168 H       1  UNL1        0.1188
     13 H          64.2428   81.3061    9.9710 H       1  UNL1        0.1188
     14 O          63.8633   87.3242   15.0966 O.3     1  UNL1       -0.4739
     15 C          63.4791   87.9837   16.3878 C.3     1  UNL1        0.2241
     16 C          63.0649   89.4253   16.3995 C.3     1  UNL1        0.1383
     17 N          63.4152   90.3157   15.2442 N.3     1  UNL1       -0.1795
     18 H          63.6385   89.7046   14.4586 H       1  UNL1        0.1486
     19 S          64.5458   91.2937   15.3670 S.O2    1  UNL1        0.0409
     20 O          63.8322   91.9770   16.4957 O.2     1  UNL1       -0.1575
     21 O          65.2595   90.6105   14.2384 O.2     1  UNL1       -0.1575
     22 C          65.6765   92.2718   15.4898 C.3     1  UNL1        0.1688
     23 C          68.2182   92.2404   16.0270 C.3     1  UNL1        0.0019
     24 C          67.0732   91.8514   15.1396 C.3     1  UNL1        0.0270
     25 C          63.9280   84.1096   10.7478 C.3     1  UNL1        0.0320
     26 C          62.9177   84.7584    9.8486 C.ar    1  UNL1       -0.0209
     27 C          61.9062   85.7078   10.4191 C.ar    1  UNL1       -0.0033
     28 C          60.8960   86.3566    9.5199 C.ar    1  UNL1        0.0119
     29 C          60.8973   86.0561    8.0504 C.ar    1  UNL1        0.0682
     30 CL         59.8871   86.7049    7.1512 Cl      1  UNL1       -0.0814
     31 C          61.9089   85.1067    7.4799 C.ar    1  UNL1        0.0679
     32 CL         61.9102   84.8062    6.0103 Cl      1  UNL1       -0.0814
     33 C          62.9191   84.4579    8.3791 C.ar    1  UNL1        0.0080
@<TRIPOS>BOND
     1    23    24    1
     2    24    22    1
     3    22    19    1
     4    19    20    2
     5    19    21    2
     6    19    17    1
     7    17    16    1
     8    16    15    1
     9    15    14    1
    10    14     1    1
    11     1     2   ar
    12     2     3   ar
    13     3     4   ar
    14     4     5   ar
    15     5     6   ar
    16     5     7    1
    17     7    25    1
    18    25    26    1
    19    26    27   ar
    20    27    28   ar
    21    28    29   ar
    22    29    30    1
    23    29    31   ar
    24    31    32    1
    25    31    33   ar
    26     7     8    1
    27     8     9    1
    28     8    10    1
    29    10    11    1
    30     6     1   ar
    31    33    26   ar
    32    11     4    1
    33    17    18    1
    34     9    12    1
    35     9    13    1
@<TRIPOS>MOLECULE
*****
 33 35 0 0 0
SMALL
GASTEIGER

@<TRIPOS>ATOM
      1 C          62.9864   84.9412    9.5138 C.ar    1  UNL1        0.1383
      2 C          62.4141   84.5749    8.1766 C.ar    1  UNL1        0.0366
      3 C          61.4222   85.4823    7.5112 C.ar    1  UNL1       -0.0015
      4 C          61.0026   86.7560    8.1830 C.ar    1  UNL1       -0.0259
      5 C          61.5749   87.1224    9.5203 C.ar    1  UNL1       -0.0218
      6 C          62.5667   86.2149   10.1857 C.ar    1  UNL1        0.0324
      7 C          61.1552   88.3962   10.1922 C.3     1  UNL1        0.0406
      8 C          60.1634   89.3036    9.5268 C.3     1  UNL1        0.0555
      9 N          59.7437   90.5774   10.1986 N.3     1  UNL1       -0.3219
     10 C          59.5911   88.9372    8.1895 C.3     1  UNL1        0.0205
     11 C          60.0107   87.6635    7.5176 C.3     1  UNL1        0.0274
     12 H          59.0697   91.0663    9.6096 H       1  UNL1        0.1188
     13 H          60.5609   91.1701   10.3443 H       1  UNL1        0.1188
     14 O          63.9782   84.0338   10.1792 O.3     1  UNL1       -0.4739
     15 C          63.5777   82.6416   10.5685 C.3     1  UNL1        0.2241
     16 C          63.5453   82.2474   12.0154 C.3     1  UNL1        0.1383
     17 N          62.5782   82.9095   12.9516 N.3     1  UNL1       -0.1795
     18 H          61.9483   83.4693   12.3768 H       1  UNL1        0.1486
     19 S          63.0844   83.8084   14.0405 S.O2    1  UNL1        0.0409
     20 O          63.5763   82.6117   14.7995 O.2     1  UNL1       -0.1575
     21 O          62.5925   85.0050   13.2815 O.2     1  UNL1       -0.1575
     22 C          63.5907   84.7072   15.1295 C.3     1  UNL1        0.1688
     23 C          64.4616   87.1428   14.8862 C.3     1  UNL1        0.0019
     24 C          64.7118   85.6642   14.8514 C.3     1  UNL1        0.0270
     25 C          61.7275   88.7625   11.5294 C.3     1  UNL1        0.0320
     26 C          62.7643   89.8418   11.6314 C.ar    1  UNL1       -0.0209
     27 C          63.0909   90.6835   10.4336 C.ar    1  UNL1       -0.0033
     28 C          64.1277   91.7628   10.5356 C.ar    1  UNL1        0.0119
     29 C          64.8377   92.0003   11.8354 C.ar    1  UNL1        0.0682
     30 CL         65.8744   93.0796   11.9374 Cl      1  UNL1       -0.0814
     31 C          64.5110   91.1585   13.0332 C.ar    1  UNL1        0.0679
     32 CL         65.2210   91.3960   14.3330 Cl      1  UNL1       -0.0814
     33 C          63.4743   90.0793   12.9312 C.ar    1  UNL1        0.0080
@<TRIPOS>BOND
     1    23    24    1
     2    24    22    1
     3    22    19    1
     4    19    20    2
     5    19    21    2
     6    19    17    1
     7    17    16    1
     8    16    15    1
     9    15    14    1
    10    14     1    1
    11     1     2   ar
    12     2     3   ar
    13     3     4   ar
    14     4     5   ar
    15     5     6   ar
    16     5     7    1
    17     7    25    1
    18    25    26    1
    19    26    27   ar
    20    27    28   ar
    21    28    29   ar
    22    29    30    1
    23    29    31   ar
    24    31    32    1
    25    31    33   ar
    26     7     8    1
    27     8     9    1
    28     8    10    1
    29    10    11    1
    30     6     1   ar
    31    33    26   ar
    32    11     4    1
    33    17    18    1
    34     9    12    1
    35     9    13    1
@<TRIPOS>MOLECULE
*****
 33 35 0 0 0
SMALL
GASTEIGER

@<TRIPOS>ATOM
      1 C          64.3042   88.9535   14.5967 C.ar    1  UNL1        0.1383
      2 C          65.1045   90.2213   14.5483 C.ar    1  UNL1        0.0366
      3 C          64.9518   91.1608   13.3891 C.ar    1  UNL1       -0.0015
      4 C          63.9989   90.8327   12.2781 C.ar    1  UNL1       -0.0259
      5 C          63.1986   89.5649   12.3265 C.ar    1  UNL1       -0.0218
      6 C          63.3513   88.6254   13.4858 C.ar    1  UNL1        0.0324
      7 C          62.2456   89.2367   11.2155 C.3     1  UNL1        0.0406
      8 C          62.0929   90.1763   10.0563 C.3     1  UNL1        0.0555
      9 N          61.1400   89.8481    8.9454 N.3     1  UNL1       -0.3219
     10 C          62.8932   91.4441   10.0080 C.3     1  UNL1        0.0205
     11 C          63.8462   91.7722   11.1189 C.3     1  UNL1        0.0274
     12 H          61.1637   90.5908    8.2466 H       1  UNL1        0.1188
     13 H          60.1954   89.7649    9.3211 H       1  UNL1        0.1188
     14 O          64.4569   88.0140   15.7559 O.3     1  UNL1       -0.4739
     15 C          63.2616   87.6417   16.5821 C.3     1  UNL1        0.2241
     16 C          62.8492   86.2043   16.6996 C.3     1  UNL1        0.1383
     17 N          63.6393   85.1379   16.0004 N.3     1  UNL1       -0.1795
     18 H          64.1873   85.6038   15.2773 H       1  UNL1        0.1486
     19 S          62.9317   83.9934   15.3374 S.O2    1  UNL1        0.0409
     20 O          61.6645   84.7955   15.3052 O.2     1  UNL1       -0.1575
     21 O          64.1988   83.1913   15.3697 O.2     1  UNL1       -0.1575
     22 C          62.2241   82.8489   14.6745 C.3     1  UNL1        0.1688
     23 C          62.3094   80.6465   13.2989 C.3     1  UNL1        0.0019
     24 C          63.0158   81.7525   14.0254 C.3     1  UNL1        0.0270
     25 C          61.4454   87.9690   11.2639 C.3     1  UNL1        0.0320
     26 C          62.0809   86.6657   10.8796 C.ar    1  UNL1       -0.0209
     27 C          62.5233   85.7046   11.9429 C.ar    1  UNL1       -0.0033
     28 C          63.1588   84.4014   11.5586 C.ar    1  UNL1        0.0119
     29 C          63.3520   84.0593   10.1109 C.ar    1  UNL1        0.0682
     30 CL         63.9875   82.7560    9.7266 Cl      1  UNL1       -0.0814
     31 C          62.9096   85.0204    9.0476 C.ar    1  UNL1        0.0679
     32 CL         63.1028   84.6782    7.6000 Cl      1  UNL1       -0.0814
     33 C          62.2741   86.3235    9.4320 C.ar    1  UNL1        0.0080
@<TRIPOS>BOND
     1    23    24    1
     2    24    22    1
     3    22    19    1
     4    19    20    2
     5    19    21    2
     6    19    17    1
     7    17    16    1
     8    16    15    1
     9    15    14    1
    10    14     1    1
    11     1     2   ar
    12     2     3   ar
    13     3     4   ar
    14     4     5   ar
    15     5     6   ar
    16     5     7    1
    17     7    25    1
    18    25    26    1
    19    26    27   ar
    20    27    28   ar
    21    28    29   ar
    22    29    30    1
    23    29    31   ar
    24    31    32    1
    25    31    33   ar
    26     7     8    1
    27     8     9    1
    28     8    10    1
    29    10    11    1
    30     6     1   ar
    31    33    26   ar
    32    11     4    1
    33    17    18    1
    34     9    12    1
    35     9    13    1
