@<TRIPOS>MOLECULE
*****
 34 38 0 0 0
SMALL
GASTEIGER

@<TRIPOS>ATOM
      1 C          64.0414   91.1643   12.2272 C.ar    1  UNL1        0.0005
      2 C          63.5960   91.4215   10.8181 C.ar    1  UNL1       -0.0024
      3 C          62.9032   90.3413   10.0416 C.ar    1  UNL1       -0.0003
      4 C          62.6558   89.0038   10.6741 C.ar    1  UNL1        0.0001
      5 C          63.1012   88.7466   12.0832 C.ar    1  UNL1       -0.0003
      6 C          63.7940   89.8269   12.8597 C.ar    1  UNL1       -0.0024
      7 C          61.9630   87.9236    9.8975 C.ar    1  UNL1        0.0030
      8 C          62.7584   87.0018    9.0213 C.ar    1  UNL1        0.0001
      9 C          62.0655   85.9216    8.2448 C.ar    1  UNL1        0.0000
     10 C          60.5773   85.7631    8.3444 C.ar    1  UNL1        0.0001
     11 C          59.7818   86.6848    9.2205 C.ar    1  UNL1        0.0031
     12 C          60.4747   87.7651    9.9971 C.ar    1  UNL1        0.0371
     13 C          59.6793   88.6868   10.8733 C.ar    1  UNL1        0.1806
     14 N          59.4365   90.1464   10.6268 N.ar    1  UNL1       -0.1084
     15 N          58.5941   90.6725   11.7509 N.ar    1  UNL1       -0.0229
     16 N          58.3162   89.5380   12.6921 N.ar    1  UNL1       -0.0464
     17 N          58.9869   88.3108   12.1497 N.ar    1  UNL1       -0.2388
     18 H          58.9748   87.4157   12.5595 H       1  UNL1        0.1923
     19 C          64.7342   92.2446   13.0038 C.3     1  UNL1        0.1372
     20 C          67.1643   92.3360   11.8942 C.ar    1  UNL1        0.3009
     21 N          68.5696   92.3544   12.4183 N.ar    1  UNL1       -0.1942
     22 C          68.5063   92.3086   13.9162 C.ar    1  UNL1        0.1018
     23 C          69.5773   92.3034   14.9665 C.ar    1  UNL1        0.0207
     24 C          69.2038   92.2516   16.4183 C.ar    1  UNL1        0.0017
     25 C          67.7594   92.2049   16.8199 C.ar    1  UNL1        0.0027
     26 C          66.6883   92.2101   15.7698 C.ar    1  UNL1        0.0314
     27 C          67.0618   92.2619   14.3179 C.ar    1  UNL1        0.0829
     28 N          66.2324   92.2789   13.0682 N.ar    1  UNL1       -0.2776
     29 C          65.2439   92.1634   16.1714 C.2     1  UNL1        0.0743
     30 O          64.6701   93.2474   17.0350 O.co2   1  UNL1       -0.5445
     31 O          64.3732   91.0327   15.7095 O.co2   1  UNL1       -0.5445
     32 O          66.7616   92.3689   10.4496 O.3     1  UNL1       -0.4478
     33 C          68.7711   92.3591    8.8029 C.3     1  UNL1        0.0513
     34 C          67.6228   93.0780    9.4469 C.3     1  UNL1        0.2088
@<TRIPOS>UNITY_ATOM_ATTR
30 1
charge -1
@<TRIPOS>BOND
     1    33    34    1
     2    34    32    1
     3    32    20    1
     4    20    21   ar
     5    21    22   ar
     6    22    23   ar
     7    23    24   ar
     8    24    25   ar
     9    25    26   ar
    10    26    29    1
    11    29    30   ar
    12    29    31   ar
    13    26    27   ar
    14    27    28   ar
    15    28    19    1
    16    19     1    1
    17     1     2   ar
    18     2     3   ar
    19     3     4   ar
    20     4     7    1
    21     7     8   ar
    22     8     9   ar
    23     9    10   ar
    24    10    11   ar
    25    11    12   ar
    26    12    13    1
    27    13    14   ar
    28    14    15   ar
    29    15    16   ar
    30    16    17   ar
    31     4     5   ar
    32     5     6   ar
    33    28    20   ar
    34     6     1   ar
    35    27    22   ar
    36    12     7   ar
    37    17    13   ar
    38    17    18    1
@<TRIPOS>MOLECULE
*****
 34 38 0 0 0
SMALL
GASTEIGER

@<TRIPOS>ATOM
      1 C          63.4204   89.5297   13.0040 C.ar    1  UNL1        0.0005
      2 C          62.5216   88.9113   11.9745 C.ar    1  UNL1       -0.0024
      3 C          62.4093   87.4188   11.8763 C.ar    1  UNL1       -0.0003
      4 C          63.1958   86.5446   12.8076 C.ar    1  UNL1        0.0001
      5 C          64.0946   87.1630   13.8371 C.ar    1  UNL1       -0.0003
      6 C          64.2069   88.6555   13.9352 C.ar    1  UNL1       -0.0024
      7 C          63.0835   85.0520   12.7094 C.ar    1  UNL1        0.0030
      8 C          63.2069   84.3767   11.3756 C.ar    1  UNL1        0.0001
      9 C          63.0946   82.8842   11.2775 C.ar    1  UNL1        0.0000
     10 C          62.8589   82.0669   12.5130 C.ar    1  UNL1        0.0001
     11 C          62.7355   82.7421   13.8467 C.ar    1  UNL1        0.0031
     12 C          62.8479   84.2347   13.9449 C.ar    1  UNL1        0.0371
     13 C          62.7245   84.9100   15.2786 C.ar    1  UNL1        0.1806
     14 N          61.4426   85.2764   15.9661 N.ar    1  UNL1       -0.1084
     15 N          61.7872   85.9302   17.2713 N.ar    1  UNL1       -0.0229
     16 N          63.2820   85.9680   17.3906 N.ar    1  UNL1       -0.0464
     17 N          63.8613   85.3374   16.1590 N.ar    1  UNL1       -0.2388
     18 H          64.8194   85.2240   15.9628 H       1  UNL1        0.1923
     19 C          63.5327   91.0223   13.1022 C.3     1  UNL1        0.1372
     20 C          65.6130   92.0180   11.7511 C.ar    1  UNL1        0.3009
     21 N          66.9132   92.6630   12.1300 N.ar    1  UNL1       -0.1942
     22 C          66.9813   92.7242   13.6272 C.ar    1  UNL1        0.1018
     23 C          68.0263   93.2543   14.5636 C.ar    1  UNL1        0.0207
     24 C          67.8133   93.1773   16.0464 C.ar    1  UNL1        0.0017
     25 C          66.5552   92.5702   16.5928 C.ar    1  UNL1        0.0027
     26 C          65.5101   92.0400   15.6564 C.ar    1  UNL1        0.0314
     27 C          65.7232   92.1170   14.1736 C.ar    1  UNL1        0.0829
     28 N          64.8775   91.6806   13.0141 N.ar    1  UNL1       -0.2776
     29 C          64.2520   91.4329   16.2028 C.2     1  UNL1        0.0743
     30 O          63.1376   92.3171   16.6784 O.co2   1  UNL1       -0.5445
     31 O          64.1084   89.9414   16.2736 O.co2   1  UNL1       -0.5445
     32 O          65.1328   91.7564   10.3544 O.3     1  UNL1       -0.4478
     33 C          62.7692   90.9690    9.6174 C.3     1  UNL1        0.0513
     34 C          63.7168   92.0751    9.9761 C.3     1  UNL1        0.2088
@<TRIPOS>UNITY_ATOM_ATTR
30 1
charge -1
@<TRIPOS>BOND
     1    33    34    1
     2    34    32    1
     3    32    20    1
     4    20    21   ar
     5    21    22   ar
     6    22    23   ar
     7    23    24   ar
     8    24    25   ar
     9    25    26   ar
    10    26    29    1
    11    29    30   ar
    12    29    31   ar
    13    26    27   ar
    14    27    28   ar
    15    28    19    1
    16    19     1    1
    17     1     2   ar
    18     2     3   ar
    19     3     4   ar
    20     4     7    1
    21     7     8   ar
    22     8     9   ar
    23     9    10   ar
    24    10    11   ar
    25    11    12   ar
    26    12    13    1
    27    13    14   ar
    28    14    15   ar
    29    15    16   ar
    30    16    17   ar
    31     4     5   ar
    32     5     6   ar
    33    28    20   ar
    34     6     1   ar
    35    27    22   ar
    36    12     7   ar
    37    17    13   ar
    38    17    18    1
@<TRIPOS>MOLECULE
*****
 34 38 0 0 0
SMALL
GASTEIGER

@<TRIPOS>ATOM
      1 C          63.1763   88.4858   12.7769 C.ar    1  UNL1        0.0005
      2 C          63.9698   87.5873   13.6786 C.ar    1  UNL1       -0.0024
      3 C          63.9870   86.1072   13.4360 C.ar    1  UNL1       -0.0003
      4 C          63.2109   85.5256   12.2918 C.ar    1  UNL1        0.0001
      5 C          62.4174   86.4241   11.3901 C.ar    1  UNL1       -0.0003
      6 C          62.4001   87.9042   11.6327 C.ar    1  UNL1       -0.0024
      7 C          63.2282   84.0454   12.0493 C.ar    1  UNL1        0.0030
      8 C          63.5375   83.5130   10.6815 C.ar    1  UNL1        0.0001
      9 C          63.5548   82.0328   10.4391 C.ar    1  UNL1        0.0000
     10 C          63.2628   81.0850   11.5644 C.ar    1  UNL1        0.0001
     11 C          62.9534   81.6174   12.9322 C.ar    1  UNL1        0.0031
     12 C          62.9361   83.0976   13.1746 C.ar    1  UNL1        0.0371
     13 C          62.6267   83.6299   14.5424 C.ar    1  UNL1        0.1806
     14 N          61.6129   84.6862   14.8689 N.ar    1  UNL1       -0.1084
     15 N          61.6365   84.9085   16.3521 N.ar    1  UNL1       -0.0229
     16 N          62.6648   83.9897   16.9424 N.ar    1  UNL1       -0.0464
     17 N          63.2768   83.1995   15.8239 N.ar    1  UNL1       -0.2388
     18 H          63.9815   82.5180   15.9148 H       1  UNL1        0.1923
     19 C          63.1590   89.9661   13.0195 C.3     1  UNL1        0.1372
     20 C          62.9331   90.9767   10.5552 C.ar    1  UNL1        0.3009
     21 N          63.6267   92.0617    9.7861 N.ar    1  UNL1       -0.1942
     22 C          64.6711   92.6662   10.6769 C.ar    1  UNL1        0.1018
     23 C          65.6599   93.7726   10.4570 C.ar    1  UNL1        0.0207
     24 C          66.6005   94.1676   11.5566 C.ar    1  UNL1        0.0017
     25 C          66.5524   93.4561   12.8763 C.ar    1  UNL1        0.0027
     26 C          65.5637   92.3497   13.0963 C.ar    1  UNL1        0.0314
     27 C          64.6231   91.9547   11.9966 C.ar    1  UNL1        0.0829
     28 N          63.5489   90.9105   11.9214 N.ar    1  UNL1       -0.2776
     29 C          65.5156   91.6382   14.4159 C.2     1  UNL1        0.0743
     30 O          66.4915   90.5378   14.7107 O.co2   1  UNL1       -0.5445
     31 O          64.4917   92.0271   15.4407 O.co2   1  UNL1       -0.5445
     32 O          61.8192   90.1099   10.0472 O.3     1  UNL1       -0.4478
     33 C          59.7452   90.2386   11.6066 C.3     1  UNL1        0.0513
     34 C          60.3923   90.5089   10.2806 C.3     1  UNL1        0.2088
@<TRIPOS>UNITY_ATOM_ATTR
30 1
charge -1
@<TRIPOS>BOND
     1    33    34    1
     2    34    32    1
     3    32    20    1
     4    20    21   ar
     5    21    22   ar
     6    22    23   ar
     7    23    24   ar
     8    24    25   ar
     9    25    26   ar
    10    26    29    1
    11    29    30   ar
    12    29    31   ar
    13    26    27   ar
    14    27    28   ar
    15    28    19    1
    16    19     1    1
    17     1     2   ar
    18     2     3   ar
    19     3     4   ar
    20     4     7    1
    21     7     8   ar
    22     8     9   ar
    23     9    10   ar
    24    10    11   ar
    25    11    12   ar
    26    12    13    1
    27    13    14   ar
    28    14    15   ar
    29    15    16   ar
    30    16    17   ar
    31     4     5   ar
    32     5     6   ar
    33    28    20   ar
    34     6     1   ar
    35    27    22   ar
    36    12     7   ar
    37    17    13   ar
    38    17    18    1
@<TRIPOS>MOLECULE
*****
 34 38 0 0 0
SMALL
GASTEIGER

@<TRIPOS>ATOM
      1 C          63.7019   88.5506   13.5033 C.ar    1  UNL1        0.0005
      2 C          62.9730   87.9682   12.3288 C.ar    1  UNL1       -0.0024
      3 C          62.8716   86.4799   12.1719 C.ar    1  UNL1       -0.0003
      4 C          63.4992   85.5740   13.1895 C.ar    1  UNL1        0.0001
      5 C          64.2280   86.1564   14.3641 C.ar    1  UNL1       -0.0003
      6 C          64.3294   87.6447   14.5209 C.ar    1  UNL1       -0.0024
      7 C          63.3978   84.0857   13.0325 C.ar    1  UNL1        0.0030
      8 C          63.6811   83.1873   14.1999 C.ar    1  UNL1        0.0001
      9 C          63.5797   81.6990   14.0429 C.ar    1  UNL1        0.0000
     10 C          63.1950   81.1090   12.7185 C.ar    1  UNL1        0.0001
     11 C          62.9117   82.0073   11.5511 C.ar    1  UNL1        0.0031
     12 C          63.0131   83.4957   11.7082 C.ar    1  UNL1        0.0371
     13 C          62.7297   84.3940   10.5408 C.ar    1  UNL1        0.1806
     14 N          63.6049   84.5770    9.3364 N.ar    1  UNL1       -0.1084
     15 N          62.9376   85.5631    8.4241 N.ar    1  UNL1       -0.0229
     16 N          61.6500   85.9896    9.0647 N.ar    1  UNL1       -0.0464
     17 N          61.5216   85.2670   10.3729 N.ar    1  UNL1       -0.2388
     18 H          60.7753   85.3510   11.0096 H       1  UNL1        0.1923
     19 C          63.8032   90.0390   13.6603 C.3     1  UNL1        0.1372
     20 C          63.1843   90.7825   11.1685 C.ar    1  UNL1        0.3009
     21 N          63.6541   91.8586   10.2351 N.ar    1  UNL1       -0.1942
     22 C          64.7132   92.6535   10.9397 C.ar    1  UNL1        0.1018
     23 C          65.5333   93.8343   10.5118 C.ar    1  UNL1        0.0207
     24 C          66.5381   94.4302   11.4526 C.ar    1  UNL1        0.0017
     25 C          66.7229   93.8453   12.8214 C.ar    1  UNL1        0.0027
     26 C          65.9028   92.6645   13.2494 C.ar    1  UNL1        0.0314
     27 C          64.8980   92.0685   12.3086 C.ar    1  UNL1        0.0829
     28 N          63.9530   90.9122   12.4499 N.ar    1  UNL1       -0.2776
     29 C          66.0876   92.0796   14.6182 C.2     1  UNL1        0.0743
     30 O          65.1189   92.4138   15.7137 O.co2   1  UNL1       -0.5445
     31 O          67.2410   91.1604   14.8916 O.co2   1  UNL1       -0.5445
     32 O          62.1307   89.7567   10.8723 O.3     1  UNL1       -0.4478
     33 C          59.6673   90.3781   11.4156 C.3     1  UNL1        0.0513
     34 C          60.7693   90.1901   10.4156 C.3     1  UNL1        0.2088
@<TRIPOS>UNITY_ATOM_ATTR
30 1
charge -1
@<TRIPOS>BOND
     1    33    34    1
     2    34    32    1
     3    32    20    1
     4    20    21   ar
     5    21    22   ar
     6    22    23   ar
     7    23    24   ar
     8    24    25   ar
     9    25    26   ar
    10    26    29    1
    11    29    30   ar
    12    29    31   ar
    13    26    27   ar
    14    27    28   ar
    15    28    19    1
    16    19     1    1
    17     1     2   ar
    18     2     3   ar
    19     3     4   ar
    20     4     7    1
    21     7     8   ar
    22     8     9   ar
    23     9    10   ar
    24    10    11   ar
    25    11    12   ar
    26    12    13    1
    27    13    14   ar
    28    14    15   ar
    29    15    16   ar
    30    16    17   ar
    31     4     5   ar
    32     5     6   ar
    33    28    20   ar
    34     6     1   ar
    35    27    22   ar
    36    12     7   ar
    37    17    13   ar
    38    17    18    1
@<TRIPOS>MOLECULE
*****
 34 38 0 0 0
SMALL
GASTEIGER

@<TRIPOS>ATOM
      1 C          63.1432   88.5804   12.5066 C.ar    1  UNL1        0.0005
      2 C          62.3390   87.9682   11.3982 C.ar    1  UNL1       -0.0024
      3 C          62.3540   86.4824   11.1931 C.ar    1  UNL1       -0.0003
      4 C          63.1731   85.6088   12.0963 C.ar    1  UNL1        0.0001
      5 C          63.9773   86.2209   13.2047 C.ar    1  UNL1       -0.0003
      6 C          63.9623   87.7067   13.4098 C.ar    1  UNL1       -0.0024
      7 C          63.1880   84.1230   11.8911 C.ar    1  UNL1        0.0030
      8 C          63.4883   83.5560   10.5352 C.ar    1  UNL1        0.0001
      9 C          63.5032   82.0702   10.3301 C.ar    1  UNL1        0.0000
     10 C          63.2178   81.1513   11.4808 C.ar    1  UNL1        0.0001
     11 C          62.9174   81.7181   12.8367 C.ar    1  UNL1        0.0031
     12 C          62.9025   83.2040   13.0418 C.ar    1  UNL1        0.0371
     13 C          62.6022   83.7709   14.3977 C.ar    1  UNL1        0.1806
     14 N          61.4526   84.6708   14.7421 N.ar    1  UNL1       -0.1084
     15 N          61.5386   84.9935   16.2045 N.ar    1  UNL1       -0.0229
     16 N          62.7413   84.2931   16.7638 N.ar    1  UNL1       -0.0464
     17 N          63.3987   83.5375   15.6471 N.ar    1  UNL1       -0.2388
     18 H          64.2104   82.9853   15.7212 H       1  UNL1        0.1923
     19 C          63.1283   90.0663   12.7118 C.3     1  UNL1        0.1372
     20 C          63.6041   90.3085   15.3310 C.ar    1  UNL1        0.3009
     21 N          64.5179   91.1523   16.1694 N.ar    1  UNL1       -0.1942
     22 C          65.3103   92.0326   15.2491 C.ar    1  UNL1        0.1018
     23 C          66.3633   93.0684   15.5105 C.ar    1  UNL1        0.0207
     24 C          66.9922   93.8045   14.3648 C.ar    1  UNL1        0.0017
     25 C          66.5681   93.5048   12.9576 C.ar    1  UNL1        0.0027
     26 C          65.5151   92.4690   12.6961 C.ar    1  UNL1        0.0314
     27 C          64.8862   91.7329   13.8418 C.ar    1  UNL1        0.0829
     28 N          63.8317   90.6674   13.8924 N.ar    1  UNL1       -0.2776
     29 C          65.0910   92.1694   11.2889 C.2     1  UNL1        0.0743
     30 O          66.1146   92.1067   10.1942 O.co2   1  UNL1       -0.5445
     31 O          63.6432   91.9323   10.9763 O.co2   1  UNL1       -0.5445
     32 O          62.6331   89.2855   15.8415 O.3     1  UNL1       -0.4478
     33 C          62.7628   87.7166   17.9082 C.3     1  UNL1        0.0513
     34 C          63.1375   88.0307   16.4902 C.3     1  UNL1        0.2088
@<TRIPOS>UNITY_ATOM_ATTR
30 1
charge -1
@<TRIPOS>BOND
     1    33    34    1
     2    34    32    1
     3    32    20    1
     4    20    21   ar
     5    21    22   ar
     6    22    23   ar
     7    23    24   ar
     8    24    25   ar
     9    25    26   ar
    10    26    29    1
    11    29    30   ar
    12    29    31   ar
    13    26    27   ar
    14    27    28   ar
    15    28    19    1
    16    19     1    1
    17     1     2   ar
    18     2     3   ar
    19     3     4   ar
    20     4     7    1
    21     7     8   ar
    22     8     9   ar
    23     9    10   ar
    24    10    11   ar
    25    11    12   ar
    26    12    13    1
    27    13    14   ar
    28    14    15   ar
    29    15    16   ar
    30    16    17   ar
    31     4     5   ar
    32     5     6   ar
    33    28    20   ar
    34     6     1   ar
    35    27    22   ar
    36    12     7   ar
    37    17    13   ar
    38    17    18    1
@<TRIPOS>MOLECULE
*****
 34 38 0 0 0
SMALL
GASTEIGER

@<TRIPOS>ATOM
      1 C          63.0712   89.0925   12.1816 C.ar    1  UNL1        0.0005
      2 C          62.8474   89.8002   10.8782 C.ar    1  UNL1       -0.0024
      3 C          63.5393   91.1025   10.6036 C.ar    1  UNL1       -0.0003
      4 C          64.4548   91.6970   11.6323 C.ar    1  UNL1        0.0001
      5 C          64.6786   90.9892   12.9358 C.ar    1  UNL1       -0.0003
      6 C          63.9867   89.6869   13.2104 C.ar    1  UNL1       -0.0024
      7 C          65.1466   92.9993   11.3576 C.ar    1  UNL1        0.0030
      8 C          64.8866   93.7306   10.0740 C.ar    1  UNL1        0.0001
      9 C          65.5784   95.0329    9.7994 C.ar    1  UNL1        0.0000
     10 C          66.5303   95.6039   10.8083 C.ar    1  UNL1        0.0001
     11 C          66.7904   94.8726   12.0919 C.ar    1  UNL1        0.0031
     12 C          66.0985   93.5703   12.3666 C.ar    1  UNL1        0.0371
     13 C          66.3585   92.8390   13.6502 C.ar    1  UNL1        0.1806
     14 N          65.5920   93.0029   14.9291 N.ar    1  UNL1       -0.1084
     15 N          66.1905   92.0806   15.9495 N.ar    1  UNL1       -0.0229
     16 N          67.3269   91.3468   15.3013 N.ar    1  UNL1       -0.0464
     17 N          67.4307   91.8155   13.8802 N.ar    1  UNL1       -0.2388
     18 H          68.0873   91.5058   13.2152 H       1  UNL1        0.1923
     19 C          62.3793   87.7901   12.4563 C.3     1  UNL1        0.1372
     20 C          62.1609   86.5866   10.0796 C.ar    1  UNL1        0.3009
     21 N          62.5345   85.2402    9.5342 N.ar    1  UNL1       -0.1942
     22 C          63.1702   84.4520   10.6407 C.ar    1  UNL1        0.1018
     23 C          63.7340   83.0628   10.6878 C.ar    1  UNL1        0.0207
     24 C          64.3171   82.5328   11.9642 C.ar    1  UNL1        0.0017
     25 C          64.3363   83.3921   13.1936 C.ar    1  UNL1        0.0027
     26 C          63.7725   84.7813   13.1465 C.ar    1  UNL1        0.0314
     27 C          63.1894   85.3113   11.8701 C.ar    1  UNL1        0.0829
     28 N          62.5656   86.6306   11.5233 N.ar    1  UNL1       -0.2776
     29 C          63.7917   85.6405   14.3758 C.2     1  UNL1        0.0743
     30 O          64.8996   86.6306   14.5816 O.co2   1  UNL1       -0.5445
     31 O          62.7030   85.5097   15.3994 O.co2   1  UNL1       -0.5445
     32 O          61.4987   87.6946    9.3154 O.3     1  UNL1       -0.4478
     33 C          59.5230   86.7667    7.9065 C.3     1  UNL1        0.0513
     34 C          60.0289   87.6304    9.0237 C.3     1  UNL1        0.2088
@<TRIPOS>UNITY_ATOM_ATTR
30 1
charge -1
@<TRIPOS>BOND
     1    33    34    1
     2    34    32    1
     3    32    20    1
     4    20    21   ar
     5    21    22   ar
     6    22    23   ar
     7    23    24   ar
     8    24    25   ar
     9    25    26   ar
    10    26    29    1
    11    29    30   ar
    12    29    31   ar
    13    26    27   ar
    14    27    28   ar
    15    28    19    1
    16    19     1    1
    17     1     2   ar
    18     2     3   ar
    19     3     4   ar
    20     4     7    1
    21     7     8   ar
    22     8     9   ar
    23     9    10   ar
    24    10    11   ar
    25    11    12   ar
    26    12    13    1
    27    13    14   ar
    28    14    15   ar
    29    15    16   ar
    30    16    17   ar
    31     4     5   ar
    32     5     6   ar
    33    28    20   ar
    34     6     1   ar
    35    27    22   ar
    36    12     7   ar
    37    17    13   ar
    38    17    18    1
@<TRIPOS>MOLECULE
*****
 34 38 0 0 0
SMALL
GASTEIGER

@<TRIPOS>ATOM
      1 C          63.3649   91.3266   12.2473 C.ar    1  UNL1        0.0005
      2 C          62.2039   90.5476   12.7906 C.ar    1  UNL1       -0.0024
      3 C          61.4481   89.6078   11.8987 C.ar    1  UNL1       -0.0003
      4 C          61.8534   89.4470   10.4634 C.ar    1  UNL1        0.0001
      5 C          63.0144   90.2260    9.9201 C.ar    1  UNL1       -0.0003
      6 C          63.7701   91.1658   10.8120 C.ar    1  UNL1       -0.0024
      7 C          61.0976   88.5072    9.5715 C.ar    1  UNL1        0.0030
      8 C          60.2662   89.0471    8.4457 C.ar    1  UNL1        0.0001
      9 C          59.5104   88.1072    7.5538 C.ar    1  UNL1        0.0000
     10 C          59.5859   86.6275    7.7877 C.ar    1  UNL1        0.0001
     11 C          60.4173   86.0876    8.9136 C.ar    1  UNL1        0.0031
     12 C          61.1731   87.0275    9.8054 C.ar    1  UNL1        0.0371
     13 C          62.0044   86.4876   10.9312 C.ar    1  UNL1        0.1806
     14 N          62.7023   87.3010   11.9807 N.ar    1  UNL1       -0.1084
     15 N          63.4130   86.3557   12.9033 N.ar    1  UNL1       -0.0229
     16 N          63.1543   84.9580   12.4241 N.ar    1  UNL1       -0.0464
     17 N          62.2837   85.0395   11.2052 N.ar    1  UNL1       -0.2388
     18 H          61.9536   84.2766   10.6777 H       1  UNL1        0.1923
     19 C          64.1207   92.2665   13.1393 C.3     1  UNL1        0.1372
     20 C          66.4496   92.4472   11.8398 C.ar    1  UNL1        0.3009
     21 N          67.8934   92.4513   12.2463 N.ar    1  UNL1       -0.1942
     22 C          67.9551   92.3199   13.7392 C.ar    1  UNL1        0.1018
     23 C          69.1096   92.2669   14.6954 C.ar    1  UNL1        0.0207
     24 C          68.8584   92.1287   16.1677 C.ar    1  UNL1        0.0017
     25 C          67.4526   92.0435   16.6839 C.ar    1  UNL1        0.0027
     26 C          66.2980   92.0965   15.7278 C.ar    1  UNL1        0.0314
     27 C          66.5492   92.2347   14.2555 C.ar    1  UNL1        0.0829
     28 N          65.6188   92.3134   13.0815 N.ar    1  UNL1       -0.2776
     29 C          64.8923   92.0113   16.2440 C.2     1  UNL1        0.0743
     30 O          64.3604   93.0807   17.1515 O.co2   1  UNL1       -0.5445
     31 O          64.0184   90.8567   15.8527 O.co2   1  UNL1       -0.5445
     32 O          65.9281   92.5576   10.4377 O.3     1  UNL1       -0.4478
     33 C          67.7455   93.6921    8.9681 C.3     1  UNL1        0.0513
     34 C          66.3678   93.6926    9.5612 C.3     1  UNL1        0.2088
@<TRIPOS>UNITY_ATOM_ATTR
30 1
charge -1
@<TRIPOS>BOND
     1    33    34    1
     2    34    32    1
     3    32    20    1
     4    20    21   ar
     5    21    22   ar
     6    22    23   ar
     7    23    24   ar
     8    24    25   ar
     9    25    26   ar
    10    26    29    1
    11    29    30   ar
    12    29    31   ar
    13    26    27   ar
    14    27    28   ar
    15    28    19    1
    16    19     1    1
    17     1     2   ar
    18     2     3   ar
    19     3     4   ar
    20     4     7    1
    21     7     8   ar
    22     8     9   ar
    23     9    10   ar
    24    10    11   ar
    25    11    12   ar
    26    12    13    1
    27    13    14   ar
    28    14    15   ar
    29    15    16   ar
    30    16    17   ar
    31     4     5   ar
    32     5     6   ar
    33    28    20   ar
    34     6     1   ar
    35    27    22   ar
    36    12     7   ar
    37    17    13   ar
    38    17    18    1
@<TRIPOS>MOLECULE
*****
 34 38 0 0 0
SMALL
GASTEIGER

@<TRIPOS>ATOM
      1 C          63.5182   89.4737   13.1111 C.ar    1  UNL1        0.0005
      2 C          62.7483   88.7993   12.0145 C.ar    1  UNL1       -0.0024
      3 C          62.6789   87.3020   11.9582 C.ar    1  UNL1       -0.0003
      4 C          63.3794   86.4791   12.9985 C.ar    1  UNL1        0.0001
      5 C          64.1493   87.1535   14.0951 C.ar    1  UNL1       -0.0003
      6 C          64.2186   88.6508   14.1513 C.ar    1  UNL1       -0.0024
      7 C          63.3100   84.9818   12.9421 C.ar    1  UNL1        0.0030
      8 C          63.7884   84.1644   14.1054 C.ar    1  UNL1        0.0001
      9 C          63.7189   82.6671   14.0489 C.ar    1  UNL1        0.0000
     10 C          63.1711   81.9871   12.8293 C.ar    1  UNL1        0.0001
     11 C          62.6927   82.8044   11.6661 C.ar    1  UNL1        0.0031
     12 C          62.7622   84.3018   11.7225 C.ar    1  UNL1        0.0371
     13 C          62.2838   85.1191   10.5592 C.ar    1  UNL1        0.1806
     14 N          63.0111   85.3171    9.2624 N.ar    1  UNL1       -0.1084
     15 N          62.1710   86.2022    8.3902 N.ar    1  UNL1       -0.0229
     16 N          60.9244   86.5513    9.1480 N.ar    1  UNL1       -0.0464
     17 N          60.9942   85.8818   10.4886 N.ar    1  UNL1       -0.2388
     18 H          60.3131   85.9339   11.1976 H       1  UNL1        0.1923
     19 C          63.5876   90.9712   13.1674 C.3     1  UNL1        0.1372
     20 C          65.6380   92.0022   11.7972 C.ar    1  UNL1        0.3009
     21 N          66.9203   92.6887   12.1636 N.ar    1  UNL1       -0.1942
     22 C          66.9887   92.7755   13.6594 C.ar    1  UNL1        0.1018
     23 C          68.0199   93.3490   14.5856 C.ar    1  UNL1        0.0207
     24 C          67.8110   93.2897   16.0698 C.ar    1  UNL1        0.0017
     25 C          66.5708   92.6569   16.6279 C.ar    1  UNL1        0.0027
     26 C          65.5396   92.0833   15.7018 C.ar    1  UNL1        0.0314
     27 C          65.7485   92.1426   14.2176 C.ar    1  UNL1        0.0829
     28 N          64.9137   91.6647   13.0666 N.ar    1  UNL1       -0.2776
     29 C          64.2994   91.4505   16.2599 C.2     1  UNL1        0.0743
     30 O          63.1498   92.3099   16.6957 O.co2   1  UNL1       -0.5445
     31 O          64.2088   89.9583   16.3822 O.co2   1  UNL1       -0.5445
     32 O          65.1633   91.7054   10.4055 O.3     1  UNL1       -0.4478
     33 C          62.7777   90.9515    9.7054 C.3     1  UNL1        0.0513
     34 C          63.7591   92.0461   10.0034 C.3     1  UNL1        0.2088
@<TRIPOS>UNITY_ATOM_ATTR
30 1
charge -1
@<TRIPOS>BOND
     1    33    34    1
     2    34    32    1
     3    32    20    1
     4    20    21   ar
     5    21    22   ar
     6    22    23   ar
     7    23    24   ar
     8    24    25   ar
     9    25    26   ar
    10    26    29    1
    11    29    30   ar
    12    29    31   ar
    13    26    27   ar
    14    27    28   ar
    15    28    19    1
    16    19     1    1
    17     1     2   ar
    18     2     3   ar
    19     3     4   ar
    20     4     7    1
    21     7     8   ar
    22     8     9   ar
    23     9    10   ar
    24    10    11   ar
    25    11    12   ar
    26    12    13    1
    27    13    14   ar
    28    14    15   ar
    29    15    16   ar
    30    16    17   ar
    31     4     5   ar
    32     5     6   ar
    33    28    20   ar
    34     6     1   ar
    35    27    22   ar
    36    12     7   ar
    37    17    13   ar
    38    17    18    1
@<TRIPOS>MOLECULE
*****
 34 38 0 0 0
SMALL
GASTEIGER

@<TRIPOS>ATOM
      1 C          63.4720   88.6537   12.8987 C.ar    1  UNL1        0.0005
      2 C          64.2158   87.8026   13.8848 C.ar    1  UNL1       -0.0024
      3 C          64.1038   86.3082   13.8202 C.ar    1  UNL1       -0.0003
      4 C          63.2480   85.6649   12.7696 C.ar    1  UNL1        0.0001
      5 C          62.5041   86.5161   11.7836 C.ar    1  UNL1       -0.0003
      6 C          62.6161   88.0104   11.8482 C.ar    1  UNL1       -0.0024
      7 C          63.1360   84.1705   12.7051 C.ar    1  UNL1        0.0030
      8 C          63.2980   83.3517   13.9514 C.ar    1  UNL1        0.0001
      9 C          63.1860   81.8573   13.8868 C.ar    1  UNL1        0.0000
     10 C          62.9120   81.1816   12.5760 C.ar    1  UNL1        0.0001
     11 C          62.7500   82.0004   11.3296 C.ar    1  UNL1        0.0031
     12 C          62.8620   83.4949   11.3942 C.ar    1  UNL1        0.0371
     13 C          62.6999   84.3136   10.1479 C.ar    1  UNL1        0.1806
     14 N          63.6980   84.4312    9.0343 N.ar    1  UNL1       -0.1084
     15 N          63.1263   85.3488    7.9945 N.ar    1  UNL1       -0.0229
     16 N          61.7749   85.7983    8.4654 N.ar    1  UNL1       -0.0464
     17 N          61.5114   85.1585    9.7963 N.ar    1  UNL1       -0.2388
     18 H          60.7008   85.2730   10.3431 H       1  UNL1        0.1923
     19 C          63.5839   90.1482   12.9632 C.3     1  UNL1        0.1372
     20 C          63.7936   90.5313   15.6003 C.ar    1  UNL1        0.3009
     21 N          64.6344   91.4069   16.4814 N.ar    1  UNL1       -0.1942
     22 C          65.5358   92.2210   15.6013 C.ar    1  UNL1        0.1018
     23 C          66.5783   93.2534   15.9132 C.ar    1  UNL1        0.0207
     24 C          67.3371   93.9133   14.8002 C.ar    1  UNL1        0.0017
     25 C          67.0532   93.5409   13.3752 C.ar    1  UNL1        0.0027
     26 C          66.0107   92.5086   13.0631 C.ar    1  UNL1        0.0314
     27 C          65.2520   91.8486   14.1761 C.ar    1  UNL1        0.0829
     28 N          64.1752   90.8043   14.1756 N.ar    1  UNL1       -0.2776
     29 C          65.7269   92.1362   11.6381 C.2     1  UNL1        0.0743
     30 O          66.8589   91.9508   10.6716 O.co2   1  UNL1       -0.5445
     31 O          64.3110   91.9491   11.1796 O.co2   1  UNL1       -0.5445
     32 O          62.7536   89.5543   16.0629 O.3     1  UNL1       -0.4478
     33 C          62.6852   87.1793   17.1138 C.3     1  UNL1        0.0513
     34 C          63.0480   88.6317   17.2083 C.3     1  UNL1        0.2088
@<TRIPOS>UNITY_ATOM_ATTR
30 1
charge -1
@<TRIPOS>BOND
     1    33    34    1
     2    34    32    1
     3    32    20    1
     4    20    21   ar
     5    21    22   ar
     6    22    23   ar
     7    23    24   ar
     8    24    25   ar
     9    25    26   ar
    10    26    29    1
    11    29    30   ar
    12    29    31   ar
    13    26    27   ar
    14    27    28   ar
    15    28    19    1
    16    19     1    1
    17     1     2   ar
    18     2     3   ar
    19     3     4   ar
    20     4     7    1
    21     7     8   ar
    22     8     9   ar
    23     9    10   ar
    24    10    11   ar
    25    11    12   ar
    26    12    13    1
    27    13    14   ar
    28    14    15   ar
    29    15    16   ar
    30    16    17   ar
    31     4     5   ar
    32     5     6   ar
    33    28    20   ar
    34     6     1   ar
    35    27    22   ar
    36    12     7   ar
    37    17    13   ar
    38    17    18    1
