@<TRIPOS>MOLECULE
*****
 29 31 0 0 0
SMALL
GASTEIGER

@<TRIPOS>ATOM
      1 C          64.4175   89.7905   14.0972 C.ar    1  UNL1        0.0534
      2 C          65.6381   90.5140   14.5838 C.ar    1  UNL1        0.0045
      3 C          66.1939   91.6621   13.7945 C.ar    1  UNL1        0.0001
      4 C          65.5292   92.0866   12.5185 C.ar    1  UNL1        0.0001
      5 C          64.3087   91.3631   12.0319 C.ar    1  UNL1        0.0001
      6 C          63.7528   90.2150   12.8213 C.ar    1  UNL1        0.0045
      7 C          66.0851   93.2346   11.7292 C.ar    1  UNL1        0.0043
      8 C          65.9934   94.6308   12.2700 C.ar    1  UNL1        0.0208
      9 C          66.5493   95.7788   11.4807 C.ar    1  UNL1        0.1003
     10 N          67.1968   95.5307   10.1506 N.ar    1  UNL1       -0.2296
     11 C          67.2885   94.1346    9.6098 C.ar    1  UNL1        0.1254
     12 N          67.9360   93.8865    8.2797 N.pl3   1  UNL1       -0.3426
     13 C          66.7326   92.9866   10.3991 C.ar    1  UNL1        0.0339
     14 H          68.3009   94.6400    7.7616 H       1  UNL1        0.1437
     15 H          67.9962   92.9702    7.9248 H       1  UNL1        0.1437
     16 N          64.3081   87.2418   14.5889 N.am    1  UNL1       -0.2987
     17 C          63.8616   88.6425   14.8865 C.2     1  UNL1        0.2460
     18 O          62.8592   88.8952   15.9734 O.2     1  UNL1       -0.2701
     19 H          64.9660   87.0759   13.8756 H       1  UNL1        0.1500
     20 C          63.7522   86.0937   15.3782 C.3     1  UNL1        0.0945
     21 C          63.4439   86.2654   16.8361 C.3     1  UNL1        0.0262
     22 C          64.0232   83.0841   12.8055 C.ar    1  UNL1        0.1385
     23 C          63.0099   82.1345   13.3724 C.ar    1  UNL1        0.0369
     24 C          62.2440   82.5046   14.6079 C.ar    1  UNL1        0.0028
     25 C          62.4914   83.8243   15.2765 C.ar    1  UNL1       -0.0025
     26 C          63.5048   84.7739   14.7096 C.ar    1  UNL1       -0.0015
     27 C          64.2706   84.4038   13.4741 C.ar    1  UNL1        0.0342
     28 C          64.2120   83.0014   10.2156 C.3     1  UNL1        0.2525
     29 O          64.7891   82.7140   11.5700 O.3     1  UNL1       -0.4714
@<TRIPOS>BOND
     1    28    29    1
     2    29    22    1
     3    22    23   ar
     4    23    24   ar
     5    24    25   ar
     6    25    26   ar
     7    26    20    1
     8    20    21    1
     9    20    16    1
    10    16    17   am
    11    17    18    2
    12    17     1    1
    13     1     2   ar
    14     2     3   ar
    15     3     4   ar
    16     4     7    1
    17     7     8   ar
    18     8     9   ar
    19     9    10   ar
    20    10    11   ar
    21    11    12    1
    22    11    13   ar
    23     4     5   ar
    24     5     6   ar
    25    26    27   ar
    26    27    22   ar
    27     6     1   ar
    28    13     7   ar
    29    16    19    1
    30    12    14    1
    31    12    15    1
@<TRIPOS>MOLECULE
*****
 29 31 0 0 0
SMALL
GASTEIGER

@<TRIPOS>ATOM
      1 C          64.4017   89.9348   14.0028 C.ar    1  UNL1        0.0534
      2 C          63.7536   90.3247   12.7074 C.ar    1  UNL1        0.0045
      3 C          64.2918   91.4810   11.9178 C.ar    1  UNL1        0.0001
      4 C          65.4780   92.2473   12.4235 C.ar    1  UNL1        0.0001
      5 C          66.1260   91.8574   13.7189 C.ar    1  UNL1        0.0001
      6 C          65.5878   90.7011   14.5085 C.ar    1  UNL1        0.0045
      7 C          66.0161   93.4035   11.6339 C.ar    1  UNL1        0.0043
      8 C          65.9768   94.7881   12.2097 C.ar    1  UNL1        0.0208
      9 C          66.5149   95.9443   11.4201 C.ar    1  UNL1        0.1003
     10 N          67.0923   95.7160   10.0546 N.ar    1  UNL1       -0.2296
     11 C          67.1316   94.3315    9.4788 C.ar    1  UNL1        0.1254
     12 N          67.7091   94.1032    8.1133 N.pl3   1  UNL1       -0.3426
     13 C          66.5935   93.1753   10.2685 C.ar    1  UNL1        0.0339
     14 H          68.0623   94.8620    7.5950 H       1  UNL1        0.1437
     15 H          67.7349   93.1945    7.7354 H       1  UNL1        0.1437
     16 N          64.3623   87.3898   14.5235 N.am    1  UNL1       -0.2987
     17 C          63.8636   88.7786   14.7925 C.2     1  UNL1        0.2460
     18 O          62.8267   89.0112   15.8512 O.2     1  UNL1       -0.2701
     19 H          65.0428   87.2371   13.8286 H       1  UNL1        0.1500
     20 C          63.8242   86.2335   15.3131 C.3     1  UNL1        0.0945
     21 C          63.4355   86.4224   16.7495 C.3     1  UNL1        0.0262
     22 C          62.3848   82.6484   14.4048 C.ar    1  UNL1        0.1385
     23 C          63.3759   82.1981   13.3729 C.ar    1  UNL1        0.0369
     24 C          64.5165   83.0930   12.9877 C.ar    1  UNL1        0.0028
     25 C          64.6659   84.4381   13.6344 C.ar    1  UNL1       -0.0025
     26 C          63.6748   84.8884   14.6663 C.ar    1  UNL1       -0.0015
     27 C          62.5342   83.9935   15.0515 C.ar    1  UNL1        0.0342
     28 C          60.8783   80.5881   13.9195 C.3     1  UNL1        0.2525
     29 O          61.2442   81.7536   14.7899 O.3     1  UNL1       -0.4714
@<TRIPOS>BOND
     1    28    29    1
     2    29    22    1
     3    22    23   ar
     4    23    24   ar
     5    24    25   ar
     6    25    26   ar
     7    26    20    1
     8    20    21    1
     9    20    16    1
    10    16    17   am
    11    17    18    2
    12    17     1    1
    13     1     2   ar
    14     2     3   ar
    15     3     4   ar
    16     4     7    1
    17     7     8   ar
    18     8     9   ar
    19     9    10   ar
    20    10    11   ar
    21    11    12    1
    22    11    13   ar
    23     4     5   ar
    24     5     6   ar
    25    26    27   ar
    26    27    22   ar
    27     6     1   ar
    28    13     7   ar
    29    16    19    1
    30    12    14    1
    31    12    15    1
@<TRIPOS>MOLECULE
*****
 29 31 0 0 0
SMALL
GASTEIGER

@<TRIPOS>ATOM
      1 C          63.1930   90.0838   12.1043 C.ar    1  UNL1        0.0534
      2 C          63.1839   88.5994   12.3198 C.ar    1  UNL1        0.0045
      3 C          62.5150   87.7007   11.3223 C.ar    1  UNL1        0.0001
      4 C          61.8552   88.2866   10.1092 C.ar    1  UNL1        0.0001
      5 C          61.8643   89.7710    9.8937 C.ar    1  UNL1        0.0001
      6 C          62.5332   90.6696   10.8912 C.ar    1  UNL1        0.0045
      7 C          61.1863   87.3880    9.1117 C.ar    1  UNL1        0.0043
      8 C          59.7125   87.5115    8.8608 C.ar    1  UNL1        0.0208
      9 C          59.0436   86.6129    7.8633 C.ar    1  UNL1        0.1003
     10 N          59.8485   85.5908    7.1166 N.ar    1  UNL1       -0.2296
     11 C          61.3222   85.4673    7.3675 C.ar    1  UNL1        0.1254
     12 N          62.1270   84.4451    6.6208 N.pl3   1  UNL1       -0.3426
     13 C          61.9911   86.3659    8.3650 C.ar    1  UNL1        0.0339
     14 H          61.6880   83.8553    5.9660 H       1  UNL1        0.1437
     15 H          63.0943   84.3640    6.7854 H       1  UNL1        0.1437
     16 N          64.1324   90.4894   14.4923 N.am    1  UNL1       -0.2987
     17 C          63.8619   90.9824   13.1018 C.2     1  UNL1        0.2460
     18 O          64.2603   92.3742   12.7087 O.2     1  UNL1       -0.2701
     19 H          63.8710   89.5759   14.7503 H       1  UNL1        0.1500
     20 C          64.8013   91.3880   15.4899 C.3     1  UNL1        0.0945
     21 C          64.0677   91.8121   16.7275 C.3     1  UNL1        0.0262
     22 C          68.3070   91.9891   13.7295 C.ar    1  UNL1        0.1385
     23 C          69.0090   92.8114   14.7692 C.ar    1  UNL1        0.0369
     24 C          68.3085   93.1592   16.0491 C.ar    1  UNL1        0.0028
     25 C          66.9059   92.6847   16.2894 C.ar    1  UNL1       -0.0025
     26 C          66.2040   91.8625   15.2497 C.ar    1  UNL1       -0.0015
     27 C          66.9045   91.5147   13.9697 C.ar    1  UNL1        0.0342
     28 C          68.3731   91.9763   11.1323 C.3     1  UNL1        0.2525
     29 O          69.0076   91.6413   12.4495 O.3     1  UNL1       -0.4714
@<TRIPOS>BOND
     1    28    29    1
     2    29    22    1
     3    22    23   ar
     4    23    24   ar
     5    24    25   ar
     6    25    26   ar
     7    26    20    1
     8    20    21    1
     9    20    16    1
    10    16    17   am
    11    17    18    2
    12    17     1    1
    13     1     2   ar
    14     2     3   ar
    15     3     4   ar
    16     4     7    1
    17     7     8   ar
    18     8     9   ar
    19     9    10   ar
    20    10    11   ar
    21    11    12    1
    22    11    13   ar
    23     4     5   ar
    24     5     6   ar
    25    26    27   ar
    26    27    22   ar
    27     6     1   ar
    28    13     7   ar
    29    16    19    1
    30    12    14    1
    31    12    15    1
@<TRIPOS>MOLECULE
*****
 29 31 0 0 0
SMALL
GASTEIGER

@<TRIPOS>ATOM
      1 C          64.1797   88.8771   13.9195 C.ar    1  UNL1        0.0534
      2 C          64.5765   87.8660   14.9540 C.ar    1  UNL1        0.0045
      3 C          64.2450   86.4171   14.7524 C.ar    1  UNL1        0.0001
      4 C          63.5168   85.9792   13.5163 C.ar    1  UNL1        0.0001
      5 C          63.1200   86.9903   12.4818 C.ar    1  UNL1        0.0001
      6 C          63.4515   88.4393   12.6834 C.ar    1  UNL1        0.0045
      7 C          63.1853   84.5302   13.3147 C.ar    1  UNL1        0.0043
      8 C          62.5400   83.7477   14.4198 C.ar    1  UNL1        0.0208
      9 C          62.2086   82.2987   14.2182 C.ar    1  UNL1        0.1003
     10 N          62.5225   81.6323   12.9115 N.ar    1  UNL1       -0.2296
     11 C          63.1677   82.4149   11.8064 C.ar    1  UNL1        0.1254
     12 N          63.4816   81.7485   10.4997 N.pl3   1  UNL1       -0.3426
     13 C          63.4992   83.8638   12.0080 C.ar    1  UNL1        0.0339
     14 H          63.2641   80.7975   10.3674 H       1  UNL1        0.1437
     15 H          63.9052   82.2621    9.7744 H       1  UNL1        0.1437
     16 N          65.8509   90.8544   13.7019 N.am    1  UNL1       -0.2987
     17 C          64.5111   90.3261   14.1211 C.2     1  UNL1        0.2460
     18 O          63.5026   91.2468   14.7419 O.2     1  UNL1       -0.2701
     19 H          66.5128   90.2501   13.2944 H       1  UNL1        0.1500
     20 C          66.1824   92.3033   13.9035 C.3     1  UNL1        0.0945
     21 C          66.2973   92.8604   15.2914 C.3     1  UNL1        0.0262
     22 C          67.0981   93.5070   10.2343 C.ar    1  UNL1        0.1385
     23 C          66.8318   94.9791   10.3442 C.ar    1  UNL1        0.0369
     24 C          66.3491   95.5592   11.6405 C.ar    1  UNL1        0.0028
     25 C          66.1326   94.6674   12.8269 C.ar    1  UNL1       -0.0025
     26 C          66.3989   93.1953   12.7170 C.ar    1  UNL1       -0.0015
     27 C          66.8816   92.6151   11.4207 C.ar    1  UNL1        0.0342
     28 C          68.9475   92.3146    8.8531 C.3     1  UNL1        0.2525
     29 O          67.5808   92.9268    8.9380 O.3     1  UNL1       -0.4714
@<TRIPOS>BOND
     1    28    29    1
     2    29    22    1
     3    22    23   ar
     4    23    24   ar
     5    24    25   ar
     6    25    26   ar
     7    26    20    1
     8    20    21    1
     9    20    16    1
    10    16    17   am
    11    17    18    2
    12    17     1    1
    13     1     2   ar
    14     2     3   ar
    15     3     4   ar
    16     4     7    1
    17     7     8   ar
    18     8     9   ar
    19     9    10   ar
    20    10    11   ar
    21    11    12    1
    22    11    13   ar
    23     4     5   ar
    24     5     6   ar
    25    26    27   ar
    26    27    22   ar
    27     6     1   ar
    28    13     7   ar
    29    16    19    1
    30    12    14    1
    31    12    15    1
@<TRIPOS>MOLECULE
*****
 29 31 0 0 0
SMALL
GASTEIGER

@<TRIPOS>ATOM
      1 C          63.5619   87.0462   13.2993 C.ar    1  UNL1        0.0534
      2 C          64.1382   86.0853   14.2967 C.ar    1  UNL1        0.0045
      3 C          63.9393   84.6094   14.1177 C.ar    1  UNL1        0.0001
      4 C          63.1640   84.0943   12.9413 C.ar    1  UNL1        0.0001
      5 C          62.5877   85.0552   11.9440 C.ar    1  UNL1        0.0001
      6 C          62.7866   86.5311   12.1230 C.ar    1  UNL1        0.0045
      7 C          62.9650   82.6184   12.7623 C.ar    1  UNL1        0.0043
      8 C          62.6392   81.7565   13.9461 C.ar    1  UNL1        0.0208
      9 C          62.4402   80.2806   13.7671 C.ar    1  UNL1        0.1003
     10 N          62.5671   79.6665   12.4043 N.ar    1  UNL1       -0.2296
     11 C          62.8929   80.5284   11.2207 C.ar    1  UNL1        0.1254
     12 N          63.0198   79.9143    9.8580 N.pl3   1  UNL1       -0.3426
     13 C          63.0918   82.0043   11.3997 C.ar    1  UNL1        0.0339
     14 H          62.8892   78.9456    9.7405 H       1  UNL1        0.1437
     15 H          63.2336   80.4800    9.0811 H       1  UNL1        0.1437
     16 N          64.4389   89.0435   14.7105 N.am    1  UNL1       -0.2987
     17 C          63.7608   88.5221   13.4783 C.2     1  UNL1        0.2460
     18 O          63.2817   89.4767   12.4250 O.2     1  UNL1       -0.2701
     19 H          64.7533   88.4170   15.4018 H       1  UNL1        0.1500
     20 C          64.6378   90.5195   14.8895 C.3     1  UNL1        0.0945
     21 C          63.8691   91.2573   15.9453 C.3     1  UNL1        0.0262
     22 C          66.0776   92.7361   11.9291 C.ar    1  UNL1        0.1385
     23 C          67.5408   92.7338   12.2590 C.ar    1  UNL1        0.0369
     24 C          68.0364   91.9933   13.4657 C.ar    1  UNL1        0.0028
     25 C          67.0688   91.2552   14.3425 C.ar    1  UNL1       -0.0025
     26 C          65.6055   91.2576   14.0126 C.ar    1  UNL1       -0.0015
     27 C          65.1099   91.9980   12.8059 C.ar    1  UNL1        0.0342
     28 C          65.7606   94.9629   10.6288 C.3     1  UNL1        0.2525
     29 O          65.5819   93.4765   10.7224 O.3     1  UNL1       -0.4714
@<TRIPOS>BOND
     1    28    29    1
     2    29    22    1
     3    22    23   ar
     4    23    24   ar
     5    24    25   ar
     6    25    26   ar
     7    26    20    1
     8    20    21    1
     9    20    16    1
    10    16    17   am
    11    17    18    2
    12    17     1    1
    13     1     2   ar
    14     2     3   ar
    15     3     4   ar
    16     4     7    1
    17     7     8   ar
    18     8     9   ar
    19     9    10   ar
    20    10    11   ar
    21    11    12    1
    22    11    13   ar
    23     4     5   ar
    24     5     6   ar
    25    26    27   ar
    26    27    22   ar
    27     6     1   ar
    28    13     7   ar
    29    16    19    1
    30    12    14    1
    31    12    15    1
@<TRIPOS>MOLECULE
*****
 29 31 0 0 0
SMALL
GASTEIGER

@<TRIPOS>ATOM
      1 C          63.1649   90.4440   12.0588 C.ar    1  UNL1        0.0534
      2 C          63.5072   89.8607   13.3977 C.ar    1  UNL1        0.0045
      3 C          64.6786   90.3916   14.1697 C.ar    1  UNL1        0.0001
      4 C          65.5077   91.5058   13.6027 C.ar    1  UNL1        0.0001
      5 C          65.1653   92.0890   12.2639 C.ar    1  UNL1        0.0001
      6 C          63.9939   91.5581   11.4919 C.ar    1  UNL1        0.0045
      7 C          66.6791   92.0367   14.3747 C.ar    1  UNL1        0.0043
      8 C          66.4695   92.6531   15.7261 C.ar    1  UNL1        0.0208
      9 C          67.6409   93.1840   16.4981 C.ar    1  UNL1        0.1003
     10 N          69.0219   93.0984   15.9187 N.ar    1  UNL1       -0.2296
     11 C          69.2314   92.4820   14.5674 C.ar    1  UNL1        0.1254
     12 N          70.6124   92.3965   13.9880 N.pl3   1  UNL1       -0.3426
     13 C          68.0600   91.9511   13.7954 C.ar    1  UNL1        0.0339
     14 H          71.3813   92.7449   14.4947 H       1  UNL1        0.1437
     15 H          70.7499   91.9919   13.1011 H       1  UNL1        0.1437
     16 N          61.2325   88.7268   11.8001 N.am    1  UNL1       -0.2987
     17 C          61.9935   89.9131   11.2868 C.2     1  UNL1        0.2460
     18 O          61.5831   90.5686   10.0015 O.2     1  UNL1       -0.2701
     19 H          61.5018   88.2966   12.6436 H       1  UNL1        0.1500
     20 C          60.0611   88.1959   11.0281 C.3     1  UNL1        0.0945
     21 C          58.6640   88.5131   11.4726 C.3     1  UNL1        0.0262
     22 C          61.7982   85.7436    8.4360 C.ar    1  UNL1        0.1385
     23 C          60.7382   85.6516    7.3787 C.ar    1  UNL1        0.0369
     24 C          59.4525   86.4077    7.5378 C.ar    1  UNL1        0.0028
     25 C          59.2268   87.2558    8.7543 C.ar    1  UNL1       -0.0025
     26 C          60.2868   87.3478    9.8116 C.ar    1  UNL1       -0.0015
     27 C          61.5725   86.5917    9.6524 C.ar    1  UNL1        0.0342
     28 C          63.5548   84.0709    9.3668 C.3     1  UNL1        0.2525
     29 O          63.0839   84.9876    8.2769 O.3     1  UNL1       -0.4714
@<TRIPOS>BOND
     1    28    29    1
     2    29    22    1
     3    22    23   ar
     4    23    24   ar
     5    24    25   ar
     6    25    26   ar
     7    26    20    1
     8    20    21    1
     9    20    16    1
    10    16    17   am
    11    17    18    2
    12    17     1    1
    13     1     2   ar
    14     2     3   ar
    15     3     4   ar
    16     4     7    1
    17     7     8   ar
    18     8     9   ar
    19     9    10   ar
    20    10    11   ar
    21    11    12    1
    22    11    13   ar
    23     4     5   ar
    24     5     6   ar
    25    26    27   ar
    26    27    22   ar
    27     6     1   ar
    28    13     7   ar
    29    16    19    1
    30    12    14    1
    31    12    15    1
@<TRIPOS>MOLECULE
*****
 29 31 0 0 0
SMALL
GASTEIGER

@<TRIPOS>ATOM
      1 C          63.3522   86.9546   13.0446 C.ar    1  UNL1        0.0534
      2 C          63.9910   85.9195   13.9225 C.ar    1  UNL1        0.0045
      3 C          63.8938   84.4667   13.5618 C.ar    1  UNL1        0.0001
      4 C          63.1578   84.0491   12.3233 C.ar    1  UNL1        0.0001
      5 C          62.5189   85.0841   11.4456 C.ar    1  UNL1        0.0001
      6 C          62.6161   86.5369   11.8062 C.ar    1  UNL1        0.0045
      7 C          63.0606   82.5963   11.9627 C.ar    1  UNL1        0.0043
      8 C          63.4122   82.1424   10.5768 C.ar    1  UNL1        0.0208
      9 C          63.3150   80.6897   10.2162 C.ar    1  UNL1        0.1003
     10 N          62.8662   79.6908   11.2414 N.ar    1  UNL1       -0.2296
     11 C          62.5146   80.1447   12.6271 C.ar    1  UNL1        0.1254
     12 N          62.0658   79.1458   13.6523 N.pl3   1  UNL1       -0.3426
     13 C          62.6118   81.5975   12.9878 C.ar    1  UNL1        0.0339
     14 H          62.0020   78.1923   13.4156 H       1  UNL1        0.1437
     15 H          61.8350   79.4438   14.5618 H       1  UNL1        0.1437
     16 N          64.3407   88.8428   14.5303 N.am    1  UNL1       -0.2987
     17 C          63.4494   88.4073   13.4053 C.2     1  UNL1        0.2460
     18 O          62.6551   89.4246   12.6408 O.2     1  UNL1       -0.2701
     19 H          64.8620   88.1751   15.0320 H       1  UNL1        0.1500
     20 C          64.4380   90.2955   14.8910 C.3     1  UNL1        0.0945
     21 C          63.6445   90.8370   16.0430 C.3     1  UNL1        0.0262
     22 C          67.5658   92.5031   13.8454 C.ar    1  UNL1        0.1385
     23 C          67.1100   93.0292   12.5168 C.ar    1  UNL1        0.0369
     24 C          65.7635   92.6442   11.9795 C.ar    1  UNL1        0.0028
     25 C          64.8728   91.7330   12.7709 C.ar    1  UNL1       -0.0025
     26 C          65.3286   91.2068   14.0995 C.ar    1  UNL1       -0.0015
     27 C          66.6752   91.5918   14.6368 C.ar    1  UNL1        0.0342
     28 C          69.0340   93.4530   15.7669 C.3     1  UNL1        0.2525
     29 O          68.9123   92.8881   14.3827 O.3     1  UNL1       -0.4714
@<TRIPOS>BOND
     1    28    29    1
     2    29    22    1
     3    22    23   ar
     4    23    24   ar
     5    24    25   ar
     6    25    26   ar
     7    26    20    1
     8    20    21    1
     9    20    16    1
    10    16    17   am
    11    17    18    2
    12    17     1    1
    13     1     2   ar
    14     2     3   ar
    15     3     4   ar
    16     4     7    1
    17     7     8   ar
    18     8     9   ar
    19     9    10   ar
    20    10    11   ar
    21    11    12    1
    22    11    13   ar
    23     4     5   ar
    24     5     6   ar
    25    26    27   ar
    26    27    22   ar
    27     6     1   ar
    28    13     7   ar
    29    16    19    1
    30    12    14    1
    31    12    15    1
@<TRIPOS>MOLECULE
*****
 29 31 0 0 0
SMALL
GASTEIGER

@<TRIPOS>ATOM
      1 C          64.1574   88.3936   13.8282 C.ar    1  UNL1        0.0534
      2 C          64.6603   87.4644   14.8931 C.ar    1  UNL1        0.0045
      3 C          64.4355   85.9868   14.7663 C.ar    1  UNL1        0.0001
      4 C          63.7077   85.4384   13.5748 C.ar    1  UNL1        0.0001
      5 C          63.2049   86.3675   12.5101 C.ar    1  UNL1        0.0001
      6 C          63.4297   87.8452   12.6368 C.ar    1  UNL1        0.0045
      7 C          63.4829   83.9607   13.4481 C.ar    1  UNL1        0.0043
      8 C          64.4787   83.1106   12.7160 C.ar    1  UNL1        0.0208
      9 C          64.2538   81.6330   12.5893 C.ar    1  UNL1        0.1003
     10 N          63.0332   81.0055   13.1947 N.ar    1  UNL1       -0.2296
     11 C          62.0375   81.8556   13.9267 C.ar    1  UNL1        0.1254
     12 N          60.8169   81.2281   14.5320 N.pl3   1  UNL1       -0.3426
     13 C          62.2623   83.3332   14.0534 C.ar    1  UNL1        0.0339
     14 H          60.6693   80.2582   14.4488 H       1  UNL1        0.1437
     15 H          60.1633   81.7860   15.0124 H       1  UNL1        0.1437
     16 N          65.7602   90.4378   13.7812 N.am    1  UNL1       -0.2987
     17 C          64.3823   89.8713   13.9549 C.2     1  UNL1        0.2460
     18 O          63.2291   90.7823   14.2554 O.2     1  UNL1       -0.2701
     19 H          66.5171   89.8399   13.5841 H       1  UNL1        0.1500
     20 C          65.9851   91.9154   13.9079 C.3     1  UNL1        0.0945
     21 C          65.8484   92.5830   15.2442 C.3     1  UNL1        0.0262
     22 C          66.3254   94.9840   11.4143 C.ar    1  UNL1        0.1385
     23 C          67.0696   94.3457   10.2792 C.ar    1  UNL1        0.0369
     24 C          67.4523   92.8972   10.3536 C.ar    1  UNL1        0.0028
     25 C          67.0908   92.0871   11.5631 C.ar    1  UNL1       -0.0025
     26 C          66.3466   92.7255   12.6983 C.ar    1  UNL1       -0.0015
     27 C          65.9639   94.1740   12.6239 C.ar    1  UNL1        0.0342
     28 C          64.7461   96.8519   10.5387 C.3     1  UNL1        0.2525
     29 O          65.9427   96.4325   11.3399 O.3     1  UNL1       -0.4714
@<TRIPOS>BOND
     1    28    29    1
     2    29    22    1
     3    22    23   ar
     4    23    24   ar
     5    24    25   ar
     6    25    26   ar
     7    26    20    1
     8    20    21    1
     9    20    16    1
    10    16    17   am
    11    17    18    2
    12    17     1    1
    13     1     2   ar
    14     2     3   ar
    15     3     4   ar
    16     4     7    1
    17     7     8   ar
    18     8     9   ar
    19     9    10   ar
    20    10    11   ar
    21    11    12    1
    22    11    13   ar
    23     4     5   ar
    24     5     6   ar
    25    26    27   ar
    26    27    22   ar
    27     6     1   ar
    28    13     7   ar
    29    16    19    1
    30    12    14    1
    31    12    15    1
@<TRIPOS>MOLECULE
*****
 29 31 0 0 0
SMALL
GASTEIGER

@<TRIPOS>ATOM
      1 C          63.0318   86.7081   12.1070 C.ar    1  UNL1        0.0534
      2 C          63.6056   85.9476   13.2657 C.ar    1  UNL1        0.0045
      3 C          63.5173   84.4506   13.2977 C.ar    1  UNL1        0.0001
      4 C          62.8552   83.7140   12.1711 C.ar    1  UNL1        0.0001
      5 C          62.2815   84.4745   11.0125 C.ar    1  UNL1        0.0001
      6 C          62.3698   85.9716   10.9805 C.ar    1  UNL1        0.0045
      7 C          62.7669   82.2170   12.2032 C.ar    1  UNL1        0.0043
      8 C          62.5367   81.5069   13.5043 C.ar    1  UNL1        0.0208
      9 C          62.4484   80.0099   13.5364 C.ar    1  UNL1        0.1003
     10 N          62.5904   79.2228   12.2673 N.ar    1  UNL1       -0.2296
     11 C          62.8206   79.9329   10.9662 C.ar    1  UNL1        0.1254
     12 N          62.9626   79.1459    9.6971 N.pl3   1  UNL1       -0.3426
     13 C          62.9089   81.4299   10.9342 C.ar    1  UNL1        0.0339
     14 H          62.9046   78.1633    9.7181 H       1  UNL1        0.1437
     15 H          63.1137   79.6119    8.8432 H       1  UNL1        0.1437
     16 N          63.7874   88.9414   13.1986 N.am    1  UNL1       -0.2987
     17 C          63.1201   88.2052   12.0750 C.2     1  UNL1        0.2460
     18 O          62.5411   88.9661   10.9191 O.2     1  UNL1       -0.2701
     19 H          64.1675   88.4420   13.9572 H       1  UNL1        0.1500
     20 C          63.8757   90.4384   13.1666 C.3     1  UNL1        0.0945
     21 C          63.1765   91.2080   12.0855 C.3     1  UNL1        0.0262
     22 C          66.7976   92.4633   14.9309 C.ar    1  UNL1        0.1385
     23 C          66.2384   92.6208   16.3138 C.ar    1  UNL1        0.0369
     24 C          64.8917   92.0508   16.6476 C.ar    1  UNL1        0.0028
     25 C          64.1041   91.3234   15.5986 C.ar    1  UNL1       -0.0025
     26 C          64.6633   91.1659   14.2157 C.ar    1  UNL1       -0.0015
     27 C          66.0100   91.7359   13.8818 C.ar    1  UNL1        0.0342
     28 C          69.0851   93.4282   15.6965 C.3     1  UNL1        0.2525
     29 O          68.1443   93.0333   14.5970 O.3     1  UNL1       -0.4714
@<TRIPOS>BOND
     1    28    29    1
     2    29    22    1
     3    22    23   ar
     4    23    24   ar
     5    24    25   ar
     6    25    26   ar
     7    26    20    1
     8    20    21    1
     9    20    16    1
    10    16    17   am
    11    17    18    2
    12    17     1    1
    13     1     2   ar
    14     2     3   ar
    15     3     4   ar
    16     4     7    1
    17     7     8   ar
    18     8     9   ar
    19     9    10   ar
    20    10    11   ar
    21    11    12    1
    22    11    13   ar
    23     4     5   ar
    24     5     6   ar
    25    26    27   ar
    26    27    22   ar
    27     6     1   ar
    28    13     7   ar
    29    16    19    1
    30    12    14    1
    31    12    15    1
