@<TRIPOS>MOLECULE
*****
 26 28 0 0 0
SMALL
GASTEIGER

@<TRIPOS>ATOM
      1 N          64.3381   87.7136   14.6103 N.am    1  UNL1       -0.2987
      2 C          63.7995   89.1107   14.7004 C.2     1  UNL1        0.2460
      3 O          62.6642   89.4182   15.6313 O.2     1  UNL1       -0.2701
      4 H          65.0832   87.5117   13.9993 H       1  UNL1        0.1500
      5 C          64.3963   90.2002   13.8597 C.ar    1  UNL1        0.0534
      6 C          65.6205   90.9269   14.3323 C.ar    1  UNL1        0.0046
      7 C          66.2173   92.0164   13.4916 C.ar    1  UNL1        0.0016
      8 C          65.5898   92.3793   12.1783 C.ar    1  UNL1        0.0178
      9 C          64.3656   91.6526   11.7058 C.ar    1  UNL1        0.0016
     10 C          63.7689   90.5631   12.5465 C.ar    1  UNL1        0.0046
     11 C          66.1866   93.4688   11.3376 C.ar    1  UNL1        0.0846
     12 C          66.9742   93.1220   10.1090 C.ar    1  UNL1        0.0398
     13 C          67.5710   94.2115    9.2683 C.ar    1  UNL1        0.1022
     14 N          67.3801   95.6479    9.6562 N.ar    1  UNL1       -0.2224
     15 C          66.5924   95.9947   10.8847 C.ar    1  UNL1        0.1989
     16 N          65.9957   94.9052   11.7254 N.ar    1  UNL1       -0.2240
     17 C          63.7413   86.6241   15.4510 C.3     1  UNL1        0.0945
     18 C          63.3696   86.8965   16.8784 C.3     1  UNL1        0.0262
     19 C          64.0220   83.4892   13.0336 C.ar    1  UNL1        0.1385
     20 C          63.0662   82.5381   13.6906 C.ar    1  UNL1        0.0369
     21 C          62.3354   82.9490   14.9344 C.ar    1  UNL1        0.0028
     22 C          62.5604   84.3109   15.5212 C.ar    1  UNL1       -0.0025
     23 C          63.5162   85.2620   14.8642 C.ar    1  UNL1       -0.0015
     24 C          64.2470   84.8512   13.6204 C.ar    1  UNL1        0.0342
     25 C          64.0288   83.0266   10.4770 C.3     1  UNL1        0.2525
     26 O          64.7528   83.0784   11.7897 O.3     1  UNL1       -0.4714
@<TRIPOS>BOND
     1    25    26    1
     2    26    19    1
     3    19    20   ar
     4    20    21   ar
     5    21    22   ar
     6    22    23   ar
     7    23    17    1
     8    17    18    1
     9    17     1    1
    10     1     2   am
    11     2     3    2
    12     2     5    1
    13     5     6   ar
    14     6     7   ar
    15     7     8   ar
    16     8    11    1
    17    11    12   ar
    18    12    13   ar
    19    13    14   ar
    20    14    15   ar
    21    15    16   ar
    22     8     9   ar
    23     9    10   ar
    24    23    24   ar
    25    24    19   ar
    26    10     5   ar
    27    16    11   ar
    28     1     4    1
@<TRIPOS>MOLECULE
*****
 26 28 0 0 0
SMALL
GASTEIGER

@<TRIPOS>ATOM
      1 N          64.1381   90.5153   14.4815 N.am    1  UNL1       -0.2987
      2 C          63.8618   91.0039   13.0905 C.2     1  UNL1        0.2460
      3 O          64.2549   92.3957   12.6925 O.2     1  UNL1       -0.2701
      4 H          63.8801   89.6019   14.7427 H       1  UNL1        0.1500
      5 C          63.1923   90.1007   12.0975 C.ar    1  UNL1        0.0534
      6 C          62.5564   90.6785   10.8678 C.ar    1  UNL1        0.0046
      7 C          61.8869   89.7753    9.8748 C.ar    1  UNL1        0.0016
      8 C          61.8534   88.2944   10.1114 C.ar    1  UNL1        0.0178
      9 C          62.4893   87.7168   11.3410 C.ar    1  UNL1        0.0016
     10 C          63.1588   88.6199   12.3340 C.ar    1  UNL1        0.0046
     11 C          61.1839   87.3913    9.1184 C.ar    1  UNL1        0.0846
     12 C          61.9506   86.2627    8.4950 C.ar    1  UNL1        0.0398
     13 C          61.2812   85.3595    7.5020 C.ar    1  UNL1        0.1022
     14 N          59.8450   85.5849    7.1323 N.ar    1  UNL1       -0.2224
     15 C          59.0783   86.7134    7.7557 C.ar    1  UNL1        0.1989
     16 N          59.7478   87.6166    8.7487 N.ar    1  UNL1       -0.2240
     17 C          64.8076   91.4185   15.4745 C.3     1  UNL1        0.0945
     18 C          64.0674   91.8649   16.7004 C.3     1  UNL1        0.0262
     19 C          68.3255   91.9856   13.7272 C.ar    1  UNL1        0.1385
     20 C          69.0365   92.7888   14.7756 C.ar    1  UNL1        0.0369
     21 C          68.3379   93.1352   16.0570 C.ar    1  UNL1        0.0028
     22 C          66.9283   92.6785   16.2900 C.ar    1  UNL1       -0.0025
     23 C          66.2173   91.8753   15.2416 C.ar    1  UNL1       -0.0015
     24 C          66.9159   91.5288   13.9602 C.ar    1  UNL1        0.0342
     25 C          68.3743   91.9489   11.1299 C.3     1  UNL1        0.2525
     26 O          69.0241   91.6391   12.4458 O.3     1  UNL1       -0.4714
@<TRIPOS>BOND
     1    25    26    1
     2    26    19    1
     3    19    20   ar
     4    20    21   ar
     5    21    22   ar
     6    22    23   ar
     7    23    17    1
     8    17    18    1
     9    17     1    1
    10     1     2   am
    11     2     3    2
    12     2     5    1
    13     5     6   ar
    14     6     7   ar
    15     7     8   ar
    16     8    11    1
    17    11    12   ar
    18    12    13   ar
    19    13    14   ar
    20    14    15   ar
    21    15    16   ar
    22     8     9   ar
    23     9    10   ar
    24    23    24   ar
    25    24    19   ar
    26    10     5   ar
    27    16    11   ar
    28     1     4    1
@<TRIPOS>MOLECULE
*****
 26 28 0 0 0
SMALL
GASTEIGER

@<TRIPOS>ATOM
      1 N          61.5325   88.9145   11.8945 N.am    1  UNL1       -0.2987
      2 C          62.2519   90.0925   11.3074 C.2     1  UNL1        0.2460
      3 O          61.7598   90.7132   10.0335 O.2     1  UNL1       -0.2701
      4 H          61.8555   88.5071   12.7305 H       1  UNL1        0.1500
      5 C          63.4634   90.6499   11.9941 C.ar    1  UNL1        0.0534
      6 C          63.8493   90.1522   13.3556 C.ar    1  UNL1        0.0046
      7 C          65.0608   90.7095   14.0423 C.ar    1  UNL1        0.0016
      8 C          65.8864   91.7646   13.3676 C.ar    1  UNL1        0.0178
      9 C          65.5006   92.2622   12.0062 C.ar    1  UNL1        0.0016
     10 C          64.2891   91.7049   11.3195 C.ar    1  UNL1        0.0046
     11 C          67.0980   92.3220   14.0543 C.ar    1  UNL1        0.0846
     12 C          66.9386   93.2133   15.2502 C.ar    1  UNL1        0.0398
     13 C          68.1501   93.7706   15.9369 C.ar    1  UNL1        0.1022
     14 N          69.5210   93.4367   15.4277 N.ar    1  UNL1       -0.2224
     15 C          69.6803   92.5454   14.2318 C.ar    1  UNL1        0.1989
     16 N          68.4688   91.9881   13.5451 N.ar    1  UNL1       -0.2240
     17 C          60.3210   88.3571   11.2078 C.3     1  UNL1        0.0945
     18 C          58.9510   88.6708   11.7319 C.3     1  UNL1        0.0262
     19 C          61.8846   85.8002    8.6064 C.ar    1  UNL1        0.1385
     20 C          60.7966   85.7439    7.5753 C.ar    1  UNL1        0.0369
     21 C          59.5501   86.5586    7.7551 C.ar    1  UNL1        0.0028
     22 C          59.3915   87.4297    8.9659 C.ar    1  UNL1       -0.0025
     23 C          60.4795   87.4860    9.9969 C.ar    1  UNL1       -0.0015
     24 C          61.7260   86.6713    9.8172 C.ar    1  UNL1        0.0342
     25 C          63.5953   84.0730    9.5229 C.3     1  UNL1        0.2525
     26 O          63.1311   84.9855    8.4266 O.3     1  UNL1       -0.4714
@<TRIPOS>BOND
     1    25    26    1
     2    26    19    1
     3    19    20   ar
     4    20    21   ar
     5    21    22   ar
     6    22    23   ar
     7    23    17    1
     8    17    18    1
     9    17     1    1
    10     1     2   am
    11     2     3    2
    12     2     5    1
    13     5     6   ar
    14     6     7   ar
    15     7     8   ar
    16     8    11    1
    17    11    12   ar
    18    12    13   ar
    19    13    14   ar
    20    14    15   ar
    21    15    16   ar
    22     8     9   ar
    23     9    10   ar
    24    23    24   ar
    25    24    19   ar
    26    10     5   ar
    27    16    11   ar
    28     1     4    1
@<TRIPOS>MOLECULE
*****
 26 28 0 0 0
SMALL
GASTEIGER

@<TRIPOS>ATOM
      1 N          65.8907   90.8386   13.7923 N.am    1  UNL1       -0.2987
      2 C          64.4917   90.3591   14.0432 C.2     1  UNL1        0.2460
      3 O          63.4380   91.3251   14.4977 O.2     1  UNL1       -0.2701
      4 H          66.5823   90.2046   13.4939 H       1  UNL1        0.1500
      5 C          64.1464   88.9137   13.8395 C.ar    1  UNL1        0.0534
      6 C          64.5465   87.8952   14.8655 C.ar    1  UNL1        0.0046
      7 C          64.2012   86.4498   14.6619 C.ar    1  UNL1        0.0016
      8 C          63.4559   86.0228   13.4321 C.ar    1  UNL1        0.0178
      9 C          63.0558   87.0412   12.4061 C.ar    1  UNL1        0.0016
     10 C          63.4011   88.4867   12.6098 C.ar    1  UNL1        0.0046
     11 C          63.1106   84.5773   13.2284 C.ar    1  UNL1        0.0846
     12 C          63.2969   83.9443   11.8813 C.ar    1  UNL1        0.0398
     13 C          62.9517   82.4989   11.6776 C.ar    1  UNL1        0.1022
     14 N          62.4200   81.6865   12.8211 N.ar    1  UNL1       -0.2224
     15 C          62.2337   82.3195   14.1681 C.ar    1  UNL1        0.1989
     16 N          62.5790   83.7649   14.3718 N.ar    1  UNL1       -0.2240
     17 C          66.2360   92.2840   13.9960 C.3     1  UNL1        0.0945
     18 C          66.3940   92.8289   15.3845 C.3     1  UNL1        0.0262
     19 C          67.0718   93.5160   10.3172 C.ar    1  UNL1        0.1385
     20 C          66.7977   94.9855   10.4412 C.ar    1  UNL1        0.0369
     21 C          66.3364   95.5545   11.7502 C.ar    1  UNL1        0.0028
     22 C          66.1491   94.6541   12.9351 C.ar    1  UNL1       -0.0025
     23 C          66.4232   93.1846   12.8110 C.ar    1  UNL1       -0.0015
     24 C          66.8846   92.6156   11.5021 C.ar    1  UNL1        0.0342
     25 C          68.8535   92.2406    8.9212 C.3     1  UNL1        0.2525
     26 O          67.5332   92.9470    9.0082 O.3     1  UNL1       -0.4714
@<TRIPOS>BOND
     1    25    26    1
     2    26    19    1
     3    19    20   ar
     4    20    21   ar
     5    21    22   ar
     6    22    23   ar
     7    23    17    1
     8    17    18    1
     9    17     1    1
    10     1     2   am
    11     2     3    2
    12     2     5    1
    13     5     6   ar
    14     6     7   ar
    15     7     8   ar
    16     8    11    1
    17    11    12   ar
    18    12    13   ar
    19    13    14   ar
    20    14    15   ar
    21    15    16   ar
    22     8     9   ar
    23     9    10   ar
    24    23    24   ar
    25    24    19   ar
    26    10     5   ar
    27    16    11   ar
    28     1     4    1
@<TRIPOS>MOLECULE
*****
 26 28 0 0 0
SMALL
GASTEIGER

@<TRIPOS>ATOM
      1 N          64.2754   88.7355   14.5514 N.am    1  UNL1       -0.2987
      2 C          63.4560   88.2891   13.3771 C.2     1  UNL1        0.2460
      3 O          62.7448   89.3024   12.5301 O.2     1  UNL1       -0.2701
      4 H          64.7422   88.0704   15.1073 H       1  UNL1        0.1500
      5 C          63.3476   86.8292   13.0497 C.ar    1  UNL1        0.0534
      6 C          63.9756   85.8094   13.9530 C.ar    1  UNL1        0.0046
      7 C          63.8673   84.3496   13.6256 C.ar    1  UNL1        0.0016
      8 C          63.1310   83.9096   12.3950 C.ar    1  UNL1        0.0178
      9 C          62.5030   84.9294   11.4918 C.ar    1  UNL1        0.0016
     10 C          62.6114   86.3892   11.8192 C.ar    1  UNL1        0.0046
     11 C          63.0226   82.4498   12.0676 C.ar    1  UNL1        0.0846
     12 C          63.3523   81.9642   10.6871 C.ar    1  UNL1        0.0398
     13 C          63.2439   80.5044   10.3598 C.ar    1  UNL1        0.1022
     14 N          62.8059   79.5301   11.4129 N.ar    1  UNL1       -0.2224
     15 C          62.4763   80.0156   12.7933 C.ar    1  UNL1        0.1989
     16 N          62.5846   81.4755   13.1206 N.ar    1  UNL1       -0.2240
     17 C          64.3838   90.1954   14.8788 C.3     1  UNL1        0.0945
     18 C          63.6164   90.7635   16.0356 C.3     1  UNL1        0.0262
     19 C          67.5083   92.3413   13.7031 C.ar    1  UNL1        0.1385
     20 C          67.0112   92.8702   12.3905 C.ar    1  UNL1        0.0369
     21 C          65.6382   92.5075   11.9073 C.ar    1  UNL1        0.0028
     22 C          64.7624   91.6159   12.7367 C.ar    1  UNL1       -0.0025
     23 C          65.2596   91.0870   14.0493 C.ar    1  UNL1       -0.0015
     24 C          66.6325   91.4497   14.5325 C.ar    1  UNL1        0.0342
     25 C          69.0727   93.2242   15.5801 C.3     1  UNL1        0.2525
     26 O          68.8813   92.7040   14.1863 O.3     1  UNL1       -0.4714
@<TRIPOS>BOND
     1    25    26    1
     2    26    19    1
     3    19    20   ar
     4    20    21   ar
     5    21    22   ar
     6    22    23   ar
     7    23    17    1
     8    17    18    1
     9    17     1    1
    10     1     2   am
    11     2     3    2
    12     2     5    1
    13     5     6   ar
    14     6     7   ar
    15     7     8   ar
    16     8    11    1
    17    11    12   ar
    18    12    13   ar
    19    13    14   ar
    20    14    15   ar
    21    15    16   ar
    22     8     9   ar
    23     9    10   ar
    24    23    24   ar
    25    24    19   ar
    26    10     5   ar
    27    16    11   ar
    28     1     4    1
@<TRIPOS>MOLECULE
*****
 26 28 0 0 0
SMALL
GASTEIGER

@<TRIPOS>ATOM
      1 N          62.7720   88.2632   10.8578 N.am    1  UNL1       -0.2987
      2 C          62.7182   89.4237   11.8067 C.2     1  UNL1        0.2460
      3 O          61.8668   89.3459   13.0393 O.2     1  UNL1       -0.2701
      4 H          63.3308   88.3143   10.0489 H       1  UNL1        0.1500
      5 C          63.5159   90.6619   11.5231 C.ar    1  UNL1        0.0534
      6 C          63.3896   91.3476   10.1949 C.ar    1  UNL1        0.0046
      7 C          64.1873   92.5858    9.9113 C.ar    1  UNL1        0.0016
      8 C          65.1111   93.1385   10.9559 C.ar    1  UNL1        0.0178
      9 C          65.2373   92.4529   12.2840 C.ar    1  UNL1        0.0016
     10 C          64.4397   91.2146   12.5676 C.ar    1  UNL1        0.0046
     11 C          65.9088   94.3768   10.6723 C.ar    1  UNL1        0.0846
     12 C          66.8311   94.4204    9.4901 C.ar    1  UNL1        0.0398
     13 C          67.6288   95.6587    9.2065 C.ar    1  UNL1        0.1022
     14 N          67.5040   96.8534   10.1051 N.ar    1  UNL1       -0.2224
     15 C          66.5817   96.8097   11.2871 C.ar    1  UNL1        0.1989
     16 N          65.7841   95.5714   11.5707 N.ar    1  UNL1       -0.2240
     17 C          61.9744   87.0249   11.1415 C.3     1  UNL1        0.0945
     18 C          60.4855   87.0338   10.9596 C.3     1  UNL1        0.0262
     19 C          63.8927   84.4474   13.4710 C.ar    1  UNL1        0.1385
     20 C          64.0483   83.2834   12.5378 C.ar    1  UNL1        0.0369
     21 C          63.5126   83.3665   11.1392 C.ar    1  UNL1        0.0028
     22 C          62.8213   84.6137   10.6738 C.ar    1  UNL1       -0.0025
     23 C          62.6657   85.7777   11.6069 C.ar    1  UNL1       -0.0015
     24 C          63.2014   85.6946   13.0055 C.ar    1  UNL1        0.0342
     25 C          64.1285   85.4559   15.8537 C.3     1  UNL1        0.2525
     26 O          64.4284   84.3643   14.8696 O.3     1  UNL1       -0.4714
@<TRIPOS>BOND
     1    25    26    1
     2    26    19    1
     3    19    20   ar
     4    20    21   ar
     5    21    22   ar
     6    22    23   ar
     7    23    17    1
     8    17    18    1
     9    17     1    1
    10     1     2   am
    11     2     3    2
    12     2     5    1
    13     5     6   ar
    14     6     7   ar
    15     7     8   ar
    16     8    11    1
    17    11    12   ar
    18    12    13   ar
    19    13    14   ar
    20    14    15   ar
    21    15    16   ar
    22     8     9   ar
    23     9    10   ar
    24    23    24   ar
    25    24    19   ar
    26    10     5   ar
    27    16    11   ar
    28     1     4    1
@<TRIPOS>MOLECULE
*****
 26 28 0 0 0
SMALL
GASTEIGER

@<TRIPOS>ATOM
      1 N          60.5633   89.8077    8.7088 N.am    1  UNL1       -0.2987
      2 C          61.5650   88.9612    9.4368 C.2     1  UNL1        0.2460
      3 O          61.7315   87.5157    9.0723 O.2     1  UNL1       -0.2701
      4 H          60.4540   90.7564    8.9480 H       1  UNL1        0.1500
      5 C          62.4001   89.5601   10.5295 C.ar    1  UNL1        0.0534
      6 C          63.0508   90.8968   10.3290 C.ar    1  UNL1        0.0046
      7 C          63.8859   91.4958   11.4216 C.ar    1  UNL1        0.0016
      8 C          64.0704   90.7581   12.7147 C.ar    1  UNL1        0.0178
      9 C          63.4197   89.4215   12.9150 C.ar    1  UNL1        0.0016
     10 C          62.5846   88.8225   11.8224 C.ar    1  UNL1        0.0046
     11 C          64.9055   91.3570   13.8073 C.ar    1  UNL1        0.0846
     12 C          66.3257   91.7549   13.5333 C.ar    1  UNL1        0.0398
     13 C          67.1608   92.3538   14.6259 C.ar    1  UNL1        0.1022
     14 N          66.5758   92.5550   15.9925 N.ar    1  UNL1       -0.2224
     15 C          65.1557   92.1571   16.2664 C.ar    1  UNL1        0.1989
     16 N          64.3206   91.5582   15.1738 N.ar    1  UNL1       -0.2240
     17 C          59.7282   89.2087    7.6162 C.3     1  UNL1        0.0945
     18 C          59.3682   87.7532    7.6596 C.3     1  UNL1        0.0262
     19 C          59.7718   91.6348    4.4757 C.ar    1  UNL1        0.1385
     20 C          58.3029   91.7784    4.2081 C.ar    1  UNL1        0.0369
     21 C          57.3091   91.0655    5.0764 C.ar    1  UNL1        0.0028
     22 C          57.7842   90.2089    6.2124 C.ar    1  UNL1       -0.0025
     23 C          59.2531   90.0653    6.4801 C.ar    1  UNL1       -0.0015
     24 C          60.2469   90.7782    5.6117 C.ar    1  UNL1        0.0342
     25 C          60.2944   93.1480    2.4295 C.3     1  UNL1        0.2525
     26 O          60.7656   92.3477    3.6074 O.3     1  UNL1       -0.4714
@<TRIPOS>BOND
     1    25    26    1
     2    26    19    1
     3    19    20   ar
     4    20    21   ar
     5    21    22   ar
     6    22    23   ar
     7    23    17    1
     8    17    18    1
     9    17     1    1
    10     1     2   am
    11     2     3    2
    12     2     5    1
    13     5     6   ar
    14     6     7   ar
    15     7     8   ar
    16     8    11    1
    17    11    12   ar
    18    12    13   ar
    19    13    14   ar
    20    14    15   ar
    21    15    16   ar
    22     8     9   ar
    23     9    10   ar
    24    23    24   ar
    25    24    19   ar
    26    10     5   ar
    27    16    11   ar
    28     1     4    1
@<TRIPOS>MOLECULE
*****
 26 28 0 0 0
SMALL
GASTEIGER

@<TRIPOS>ATOM
      1 N          63.7050   86.4762   13.7571 N.am    1  UNL1       -0.2987
      2 C          63.8047   87.6964   14.6237 C.2     1  UNL1        0.2460
      3 O          63.5123   87.5997   16.0918 O.2     1  UNL1       -0.2701
      4 H          63.8969   86.5397   12.7936 H       1  UNL1        0.1500
      5 C          64.1969   89.0134   14.0223 C.ar    1  UNL1        0.0534
      6 C          65.2033   89.8841   14.7145 C.ar    1  UNL1        0.0046
      7 C          65.5955   91.2011   14.1131 C.ar    1  UNL1        0.0016
      8 C          64.9811   91.6474   12.8194 C.ar    1  UNL1        0.0178
      9 C          63.9747   90.7768   12.1273 C.ar    1  UNL1        0.0016
     10 C          63.5826   89.4598   12.7287 C.ar    1  UNL1        0.0046
     11 C          65.3733   92.9644   12.2180 C.ar    1  UNL1        0.0846
     12 C          66.1241   93.9702   13.0394 C.ar    1  UNL1        0.0398
     13 C          66.5163   95.2872   12.4380 C.ar    1  UNL1        0.1022
     14 N          66.1576   95.5984   11.0151 N.ar    1  UNL1       -0.2224
     15 C          65.4068   94.5927   10.1937 C.ar    1  UNL1        0.1989
     16 N          65.0146   93.2757   10.7952 N.ar    1  UNL1       -0.2240
     17 C          63.3128   85.1592   14.3586 C.3     1  UNL1        0.0945
     18 C          62.9863   85.0695   15.8198 C.3     1  UNL1        0.0262
     19 C          62.3608   81.5269   13.0741 C.ar    1  UNL1        0.1385
     20 C          63.1160   81.4772   11.7791 C.ar    1  UNL1        0.0369
     21 C          63.9369   82.6548   11.3439 C.ar    1  UNL1        0.0028
     22 C          64.0025   83.8821   12.2037 C.ar    1  UNL1       -0.0025
     23 C          63.2472   83.9318   13.4987 C.ar    1  UNL1       -0.0015
     24 C          62.4264   82.7542   13.9339 C.ar    1  UNL1        0.0342
     25 C          60.2419   80.5648   14.2294 C.3     1  UNL1        0.2525
     26 O          61.5399   80.3492   13.5093 O.3     1  UNL1       -0.4714
@<TRIPOS>BOND
     1    25    26    1
     2    26    19    1
     3    19    20   ar
     4    20    21   ar
     5    21    22   ar
     6    22    23   ar
     7    23    17    1
     8    17    18    1
     9    17     1    1
    10     1     2   am
    11     2     3    2
    12     2     5    1
    13     5     6   ar
    14     6     7   ar
    15     7     8   ar
    16     8    11    1
    17    11    12   ar
    18    12    13   ar
    19    13    14   ar
    20    14    15   ar
    21    15    16   ar
    22     8     9   ar
    23     9    10   ar
    24    23    24   ar
    25    24    19   ar
    26    10     5   ar
    27    16    11   ar
    28     1     4    1
@<TRIPOS>MOLECULE
*****
 26 28 0 0 0
SMALL
GASTEIGER

@<TRIPOS>ATOM
      1 N          60.1428   90.0765    6.5562 N.am    1  UNL1       -0.2987
      2 C          59.4710   88.9494    7.2830 C.2     1  UNL1        0.2460
      3 O          58.0543   88.5829    6.9531 O.2     1  UNL1       -0.2701
      4 H          61.0726   90.3171    6.7727 H       1  UNL1        0.1500
      5 C          60.2158   88.1888    8.3397 C.ar    1  UNL1        0.0534
      6 C          60.2777   86.6911    8.2826 C.ar    1  UNL1        0.0046
      7 C          61.0226   85.9304    9.3393 C.ar    1  UNL1        0.0016
      8 C          61.7055   86.6675   10.4531 C.ar    1  UNL1        0.0178
      9 C          61.6435   88.1651   10.5102 C.ar    1  UNL1        0.0016
     10 C          60.8987   88.9257    9.4535 C.ar    1  UNL1        0.0046
     11 C          62.4503   85.9068   11.5098 C.ar    1  UNL1        0.0846
     12 C          62.5744   84.4150   11.4132 C.ar    1  UNL1        0.0398
     13 C          63.3192   83.6544   12.4699 C.ar    1  UNL1        0.1022
     14 N          63.9399   84.3855   13.6233 N.ar    1  UNL1       -0.2224
     15 C          63.8158   85.8772   13.7199 C.ar    1  UNL1        0.1989
     16 N          63.0710   86.6378   12.6632 N.ar    1  UNL1       -0.2240
     17 C          59.3980   90.8372    5.4995 C.3     1  UNL1        0.0945
     18 C          57.9000   90.9038    5.5386 C.3     1  UNL1        0.0262
     19 C          60.2082   93.2316    2.4400 C.ar    1  UNL1        0.1385
     20 C          61.6575   92.9195    2.2119 C.ar    1  UNL1        0.0369
     21 C          62.3537   91.9133    3.0796 C.ar    1  UNL1        0.0028
     22 C          61.6005   91.2192    4.1755 C.ar    1  UNL1       -0.0025
     23 C          60.1512   91.5313    4.4036 C.ar    1  UNL1       -0.0015
     24 C          59.4551   92.5375    3.5358 C.ar    1  UNL1        0.0342
     25 C          59.0374   93.8474    0.2040 C.3     1  UNL1        0.2525
     26 O          59.5121   94.2378    1.5722 O.3     1  UNL1       -0.4714
@<TRIPOS>BOND
     1    25    26    1
     2    26    19    1
     3    19    20   ar
     4    20    21   ar
     5    21    22   ar
     6    22    23   ar
     7    23    17    1
     8    17    18    1
     9    17     1    1
    10     1     2   am
    11     2     3    2
    12     2     5    1
    13     5     6   ar
    14     6     7   ar
    15     7     8   ar
    16     8    11    1
    17    11    12   ar
    18    12    13   ar
    19    13    14   ar
    20    14    15   ar
    21    15    16   ar
    22     8     9   ar
    23     9    10   ar
    24    23    24   ar
    25    24    19   ar
    26    10     5   ar
    27    16    11   ar
    28     1     4    1
