@<TRIPOS>MOLECULE
*****
 48 54 0 0 0
SMALL
GASTEIGER

@<TRIPOS>ATOM
      1 C          59.3937   88.9918    7.4482 C.3     1  UNL1        0.1540
      2 O          59.4706   88.8601   10.4444 O.2     1  UNL1       -0.2526
      3 C          60.5654   89.5612    9.6961 C.2     1  UNL1        0.3043
      4 N          60.5269   89.6270    8.1980 N.am    1  UNL1       -0.2822
      5 N          61.6986   90.1963   10.4459 N.am    1  UNL1       -0.2641
      6 C          61.7371   90.1305   11.9439 C.3     1  UNL1        0.0966
      7 C          62.8704   90.7657   12.6937 C.3     1  UNL1        0.0415
      8 C          63.9652   91.4668   11.9455 C.3     1  UNL1        0.0806
      9 C          63.9267   91.5327   10.4474 C.3     1  UNL1        0.0415
     10 C          62.7935   90.8975    9.6976 C.3     1  UNL1        0.0966
     11 H          61.2455   90.0872    7.7069 H       1  UNL1        0.1514
     12 N          65.0984   92.1020   12.6953 N.am    1  UNL1       -0.2613
     13 C          65.6323   91.4536   13.9381 C.3     1  UNL1        0.1228
     14 C          66.7656   92.0889   14.6879 C.ar    1  UNL1        0.0112
     15 C          67.2994   91.4406   15.9308 C.ar    1  UNL1       -0.0014
     16 C          68.4326   92.0758   16.6806 C.ar    1  UNL1       -0.0002
     17 C          69.0321   93.3594   16.1875 C.ar    1  UNL1        0.0013
     18 C          68.4983   94.0077   14.9447 C.ar    1  UNL1        0.0144
     19 C          67.3650   93.3725   14.1949 C.ar    1  UNL1        0.0492
     20 N          66.8312   94.0208   12.9520 N.am    1  UNL1       -0.2684
     21 C          65.6979   93.3856   12.2022 C.2     1  UNL1        0.3079
     22 O          65.1641   94.0340   10.9594 O.2     1  UNL1       -0.2522
     23 H          67.2246   94.8633   12.6284 H       1  UNL1        0.1564
     24 C          58.5341   89.8232    6.5427 C.2     1  UNL1        0.2439
     25 O          57.0411   89.7863    6.6837 O.2     1  UNL1       -0.2731
     26 N          59.1674   90.6914    5.4962 N.am    1  UNL1       -0.2781
     27 C          60.6603   90.7282    5.3553 C.3     1  UNL1        0.0948
     28 C          61.2936   91.5964    4.3088 C.3     1  UNL1        0.0375
     29 C          60.4340   92.4278    3.4033 C.3     1  UNL1        0.0609
     30 C          58.9411   92.3909    3.5443 C.3     1  UNL1        0.0375
     31 C          58.3078   91.5227    4.5907 C.3     1  UNL1        0.0948
     32 N          61.0673   93.2960    2.3568 N.3     1  UNL1       -0.2738
     33 C          60.4219   94.5927    1.9671 C.3     1  UNL1        0.0720
     34 C          61.0552   95.4609    0.9205 C.3     1  UNL1        0.0174
     35 C          62.3339   95.0324    0.2638 C.3     1  UNL1        0.0029
     36 C          62.9793   93.7356    0.6536 C.3     1  UNL1        0.0174
     37 C          62.3460   92.8674    1.7000 C.3     1  UNL1        0.0720
     38 C          59.1200   87.5252    7.6039 C.3     1  UNL1        0.0514
     39 C          60.2433   86.5817    7.9169 C.2     1  UNL1       -0.0367
     40 C          60.9279   85.8371    6.8092 C.2     1  UNL1        0.0049
     41 C          62.0513   84.8936    7.1222 C.2     1  UNL1        0.0761
     42 CL         62.7359   84.1490    6.0146 Cl      1  UNL1       -0.0806
     43 C          62.4899   84.6947    8.5428 C.2     1  UNL1        0.1112
     44 N          63.5592   83.8373    9.1524 N.2     1  UNL1       -0.1474
     45 N          63.5354   84.0520   10.6367 N.2     1  UNL1       -0.1467
     46 C          62.4514   85.0420   10.9445 C.2     1  UNL1        0.1197
     47 C          61.8053   85.4393    9.6504 C.2     1  UNL1        0.0230
     48 C          60.6820   86.3828    9.3375 C.3     1  UNL1        0.0516
@<TRIPOS>BOND
     1     2     3    2
     2     3     4   am
     3     4     1    1
     4     1    38    1
     5    38    39    1
     6    39    40    2
     7    40    41    1
     8    41    42    1
     9    41    43    2
    10    43    44    1
    11    44    45    2
    12    45    46    1
    13    46    47    2
    14    47    48    1
    15     1    24    1
    16    24    25    2
    17    24    26   am
    18    26    27    1
    19    27    28    1
    20    28    29    1
    21    29    32    1
    22    32    33    1
    23    33    34    1
    24    34    35    1
    25    35    36    1
    26    36    37    1
    27    29    30    1
    28    30    31    1
    29     3     5   am
    30     5     6    1
    31     6     7    1
    32     7     8    1
    33     8    12    1
    34    12    13    1
    35    13    14    1
    36    14    15   ar
    37    15    16   ar
    38    16    17   ar
    39    17    18   ar
    40    18    19   ar
    41    19    20    1
    42    20    21   am
    43    21    22    2
    44     8     9    1
    45     9    10    1
    46    48    39    1
    47    31    26    1
    48    10     5    1
    49    47    43    1
    50    37    32    1
    51    21    12   am
    52    19    14   ar
    53     4    11    1
    54    20    23    1
@<TRIPOS>MOLECULE
*****
 48 54 0 0 0
SMALL
GASTEIGER

@<TRIPOS>ATOM
      1 C          60.7195   87.9830    8.9390 C.3     1  UNL1        0.1540
      2 O          58.1895   88.8901    7.6064 O.2     1  UNL1       -0.2526
      3 C          59.5173   89.3719    7.1017 C.2     1  UNL1        0.3043
      4 N          60.7823   88.9183    7.7681 N.am    1  UNL1       -0.2822
      5 N          59.5801   90.3072    5.9308 N.am    1  UNL1       -0.2641
      6 C          58.3151   90.7608    5.2645 C.3     1  UNL1        0.0966
      7 C          58.3779   91.6962    4.0935 C.3     1  UNL1        0.0415
      8 C          59.7057   92.1780    3.5889 C.3     1  UNL1        0.0806
      9 C          60.9708   91.7244    4.2552 C.3     1  UNL1        0.0415
     10 C          60.9080   90.7891    5.4261 C.3     1  UNL1        0.0966
     11 H          61.6538   89.2346    7.4368 H       1  UNL1        0.1514
     12 N          59.7685   93.1133    2.4179 N.am    1  UNL1       -0.2613
     13 C          59.7712   92.5670    1.0209 C.3     1  UNL1        0.1228
     14 C          59.8340   93.5025   -0.1500 C.ar    1  UNL1        0.0112
     15 C          59.8367   92.9562   -1.5470 C.ar    1  UNL1       -0.0014
     16 C          59.8995   93.8915   -2.7180 C.ar    1  UNL1       -0.0002
     17 C          59.9596   95.3732   -2.4919 C.ar    1  UNL1        0.0013
     18 C          59.9569   95.9195   -1.0950 C.ar    1  UNL1        0.0144
     19 C          59.8941   94.9841    0.0760 C.ar    1  UNL1        0.0492
     20 N          59.8914   95.5303    1.4730 N.am    1  UNL1       -0.2684
     21 C          59.8286   94.5950    2.6439 C.2     1  UNL1        0.3079
     22 O          59.8259   95.1413    4.0409 O.2     1  UNL1       -0.2522
     23 H          59.9309   96.5028    1.6213 H       1  UNL1        0.1564
     24 C          60.4946   88.5240   10.3198 C.2     1  UNL1        0.2439
     25 O          59.2128   88.2293   11.0412 O.2     1  UNL1       -0.2731
     26 N          61.5513   89.3596   10.9793 N.am    1  UNL1       -0.2781
     27 C          62.8330   89.6542   10.2580 C.3     1  UNL1        0.0948
     28 C          63.8899   90.4899   10.9175 C.3     1  UNL1        0.0375
     29 C          63.6649   91.0309   12.2983 C.3     1  UNL1        0.0609
     30 C          62.3831   90.7362   13.0197 C.3     1  UNL1        0.0375
     31 C          61.3264   89.9006   12.3602 C.3     1  UNL1        0.0948
     32 N          64.7216   91.8665   12.9578 N.3     1  UNL1       -0.2738
     33 C          65.4158   92.9468   12.1825 C.3     1  UNL1        0.0720
     34 C          66.4726   93.7825   12.8420 C.3     1  UNL1        0.0174
     35 C          66.8352   93.5378   14.2768 C.3     1  UNL1        0.0029
     36 C          66.1410   92.4575   15.0521 C.3     1  UNL1        0.0174
     37 C          65.0843   91.6219   14.3926 C.3     1  UNL1        0.0720
     38 C          60.8817   86.5066    8.7291 C.3     1  UNL1        0.0514
     39 C          61.7262   85.7031    9.6732 C.2     1  UNL1       -0.0367
     40 C          62.7298   84.7264    9.1358 C.2     1  UNL1        0.0049
     41 C          63.5743   83.9229   10.0800 C.2     1  UNL1        0.0761
     42 CL         64.5779   82.9462    9.5426 Cl      1  UNL1       -0.0806
     43 C          63.4152   84.0962   11.5614 C.2     1  UNL1        0.1112
     44 N          64.1017   83.4484   12.7272 N.2     1  UNL1       -0.1474
     45 N          63.5224   84.0248   13.9850 N.2     1  UNL1       -0.1467
     46 C          62.4778   85.0288   13.5966 C.2     1  UNL1        0.1197
     47 C          62.4116   85.0730   12.0987 C.2     1  UNL1        0.0230
     48 C          61.5671   85.8764   11.1547 C.3     1  UNL1        0.0516
@<TRIPOS>BOND
     1     2     3    2
     2     3     4   am
     3     4     1    1
     4     1    38    1
     5    38    39    1
     6    39    40    2
     7    40    41    1
     8    41    42    1
     9    41    43    2
    10    43    44    1
    11    44    45    2
    12    45    46    1
    13    46    47    2
    14    47    48    1
    15     1    24    1
    16    24    25    2
    17    24    26   am
    18    26    27    1
    19    27    28    1
    20    28    29    1
    21    29    32    1
    22    32    33    1
    23    33    34    1
    24    34    35    1
    25    35    36    1
    26    36    37    1
    27    29    30    1
    28    30    31    1
    29     3     5   am
    30     5     6    1
    31     6     7    1
    32     7     8    1
    33     8    12    1
    34    12    13    1
    35    13    14    1
    36    14    15   ar
    37    15    16   ar
    38    16    17   ar
    39    17    18   ar
    40    18    19   ar
    41    19    20    1
    42    20    21   am
    43    21    22    2
    44     8     9    1
    45     9    10    1
    46    48    39    1
    47    31    26    1
    48    10     5    1
    49    47    43    1
    50    37    32    1
    51    21    12   am
    52    19    14   ar
    53     4    11    1
    54    20    23    1
@<TRIPOS>MOLECULE
*****
 48 54 0 0 0
SMALL
GASTEIGER

@<TRIPOS>ATOM
      1 C          60.7085   87.8097    9.1657 C.3     1  UNL1        0.1540
      2 O          58.2951   88.8642    7.7292 O.2     1  UNL1       -0.2526
      3 C          59.6700   89.2246    7.2501 C.2     1  UNL1        0.3043
      4 N          60.8767   88.6974    7.9683 N.am    1  UNL1       -0.2822
      5 N          59.8382   90.1123    6.0527 N.am    1  UNL1       -0.2641
      6 C          58.6315   90.6395    5.3345 C.3     1  UNL1        0.0966
      7 C          58.7998   91.5273    4.1371 C.3     1  UNL1        0.0415
      8 C          60.1747   91.8877    3.6580 C.3     1  UNL1        0.0806
      9 C          61.3814   91.3605    4.3763 C.3     1  UNL1        0.0415
     10 C          61.2132   90.4728    5.5736 C.3     1  UNL1        0.0966
     11 H          61.7791   88.9340    7.6539 H       1  UNL1        0.1514
     12 N          60.3430   92.7754    2.4607 N.am    1  UNL1       -0.2613
     13 C          59.1396   93.2300    1.6891 C.3     1  UNL1        0.1228
     14 C          59.3079   94.1178    0.4917 C.ar    1  UNL1        0.0112
     15 C          58.1046   94.5724   -0.2800 C.ar    1  UNL1       -0.0014
     16 C          58.2729   95.4601   -1.4773 C.ar    1  UNL1       -0.0002
     17 C          59.6444   95.8932   -1.9031 C.ar    1  UNL1        0.0013
     18 C          60.8477   95.4386   -1.1315 C.ar    1  UNL1        0.0144
     19 C          60.6795   94.5509    0.0659 C.ar    1  UNL1        0.0492
     20 N          61.8828   94.0963    0.8376 N.am    1  UNL1       -0.2684
     21 C          61.7145   93.2086    2.0349 C.2     1  UNL1        0.3079
     22 O          62.9178   92.7540    2.8065 O.2     1  UNL1       -0.2522
     23 H          62.7830   94.3805    0.5581 H       1  UNL1        0.1564
     24 C          60.4816   88.4126   10.5203 C.2     1  UNL1        0.2439
     25 O          59.1945   88.1595   11.2479 O.2     1  UNL1       -0.2731
     26 N          61.5419   89.2685   11.1474 N.am    1  UNL1       -0.2781
     27 C          62.8289   89.5215   10.4199 C.3     1  UNL1        0.0948
     28 C          63.8892   90.3774   11.0470 C.3     1  UNL1        0.0375
     29 C          63.6624   90.9803   12.4016 C.3     1  UNL1        0.0609
     30 C          62.3753   90.7272   13.1292 C.3     1  UNL1        0.0375
     31 C          61.3150   89.8713   12.5021 C.3     1  UNL1        0.0948
     32 N          64.7226   91.8362   13.0288 N.3     1  UNL1       -0.2738
     33 C          65.6961   92.5793   12.1626 C.3     1  UNL1        0.0720
     34 C          66.7564   93.4352   12.7897 C.3     1  UNL1        0.0174
     35 C          66.8432   93.5480   14.2830 C.3     1  UNL1        0.0029
     36 C          65.8697   92.8049   15.1491 C.3     1  UNL1        0.0174
     37 C          64.8094   91.9490   14.5220 C.3     1  UNL1        0.0720
     38 C          60.7671   86.3191    9.0084 C.3     1  UNL1        0.0514
     39 C          61.6558   85.5051    9.9014 C.2     1  UNL1       -0.0367
     40 C          62.6951   84.6030    9.3045 C.2     1  UNL1        0.0049
     41 C          63.5839   83.7890   10.1976 C.2     1  UNL1        0.0761
     42 CL         64.6232   82.8869    9.6008 Cl      1  UNL1       -0.0806
     43 C          63.4333   83.8770   11.6874 C.2     1  UNL1        0.1112
     44 N          64.1598   83.1996   12.8114 N.2     1  UNL1       -0.1474
     45 N          63.5696   83.6830   14.1029 N.2     1  UNL1       -0.1467
     46 C          62.4783   84.6591   13.7770 C.2     1  UNL1        0.1197
     47 C          62.3941   84.7791   12.2842 C.2     1  UNL1        0.0230
     48 C          61.5053   85.5931   11.3912 C.3     1  UNL1        0.0516
@<TRIPOS>BOND
     1     2     3    2
     2     3     4   am
     3     4     1    1
     4     1    38    1
     5    38    39    1
     6    39    40    2
     7    40    41    1
     8    41    42    1
     9    41    43    2
    10    43    44    1
    11    44    45    2
    12    45    46    1
    13    46    47    2
    14    47    48    1
    15     1    24    1
    16    24    25    2
    17    24    26   am
    18    26    27    1
    19    27    28    1
    20    28    29    1
    21    29    32    1
    22    32    33    1
    23    33    34    1
    24    34    35    1
    25    35    36    1
    26    36    37    1
    27    29    30    1
    28    30    31    1
    29     3     5   am
    30     5     6    1
    31     6     7    1
    32     7     8    1
    33     8    12    1
    34    12    13    1
    35    13    14    1
    36    14    15   ar
    37    15    16   ar
    38    16    17   ar
    39    17    18   ar
    40    18    19   ar
    41    19    20    1
    42    20    21   am
    43    21    22    2
    44     8     9    1
    45     9    10    1
    46    48    39    1
    47    31    26    1
    48    10     5    1
    49    47    43    1
    50    37    32    1
    51    21    12   am
    52    19    14   ar
    53     4    11    1
    54    20    23    1
@<TRIPOS>MOLECULE
*****
 48 54 0 0 0
SMALL
GASTEIGER

@<TRIPOS>ATOM
      1 C          60.5305   88.3473    8.5306 C.3     1  UNL1        0.1540
      2 O          58.2162   89.6530    7.1381 O.2     1  UNL1       -0.2526
      3 C          59.6138   89.8780    6.6421 C.2     1  UNL1        0.3043
      4 N          60.7709   89.2251    7.3383 N.am    1  UNL1       -0.2822
      5 N          59.8542   90.7558    5.4498 N.am    1  UNL1       -0.2641
      6 C          58.6970   91.4087    4.7536 C.3     1  UNL1        0.0966
      7 C          58.9375   92.2865    3.5612 C.3     1  UNL1        0.0415
      8 C          60.3351   92.5116    3.0652 C.3     1  UNL1        0.0806
      9 C          61.4923   91.8587    3.7615 C.3     1  UNL1        0.0415
     10 C          61.2518   90.9809    4.9538 C.3     1  UNL1        0.0966
     11 H          61.6882   89.3728    7.0128 H       1  UNL1        0.1514
     12 N          60.5755   93.3894    1.8730 N.am    1  UNL1       -0.2613
     13 C          61.8206   94.2221    1.7936 C.3     1  UNL1        0.1228
     14 C          62.0610   95.1000    0.6013 C.ar    1  UNL1        0.0112
     15 C          63.3061   95.9328    0.5219 C.ar    1  UNL1       -0.0014
     16 C          63.5465   96.8106   -0.6704 C.ar    1  UNL1       -0.0002
     17 C          62.5418   96.8558   -1.7833 C.ar    1  UNL1        0.0013
     18 C          61.2967   96.0230   -1.7040 C.ar    1  UNL1        0.0144
     19 C          61.0563   95.1451   -0.5116 C.ar    1  UNL1        0.0492
     20 N          59.8113   94.3124   -0.4323 N.am    1  UNL1       -0.2684
     21 C          59.5708   93.4345    0.7600 C.2     1  UNL1        0.3079
     22 O          58.3258   92.6018    0.8394 O.2     1  UNL1       -0.2522
     23 H          59.1519   94.3420   -1.1627 H       1  UNL1        0.1564
     24 C          60.2668   88.9616    9.8734 C.2     1  UNL1        0.2439
     25 O          58.8951   88.8871   10.4759 O.2     1  UNL1       -0.2731
     26 N          61.3747   89.6506   10.6136 N.am    1  UNL1       -0.2781
     27 C          62.7463   89.7251   10.0110 C.3     1  UNL1        0.0948
     28 C          63.8542   90.4140   10.7513 C.3     1  UNL1        0.0375
     29 C          63.5905   91.0284   12.0940 C.3     1  UNL1        0.0609
     30 C          62.2188   90.9538   12.6966 C.3     1  UNL1        0.0375
     31 C          61.1109   90.2649   11.9563 C.3     1  UNL1        0.0948
     32 N          64.6984   91.7173   12.8342 N.3     1  UNL1       -0.2738
     33 C          65.1477   91.1957   14.1669 C.3     1  UNL1        0.0720
     34 C          66.2556   91.8846   14.9072 C.3     1  UNL1        0.0174
     35 C          66.9142   93.0952   14.3148 C.3     1  UNL1        0.0029
     36 C          66.4648   93.6168   12.9820 C.3     1  UNL1        0.0174
     37 C          65.3569   92.9279   12.2418 C.3     1  UNL1        0.0720
     38 C          60.5538   86.8550    8.3801 C.3     1  UNL1        0.0514
     39 C          61.4073   86.0226    9.2905 C.2     1  UNL1       -0.0367
     40 C          61.2436   86.1297   10.7776 C.2     1  UNL1        0.0049
     41 C          62.0972   85.2973   11.6880 C.2     1  UNL1        0.0761
     42 CL         61.9335   85.4044   13.1752 Cl      1  UNL1       -0.0806
     43 C          63.1143   84.3579   11.1111 C.2     1  UNL1        0.1112
     44 N          64.0910   83.4181   11.7537 N.2     1  UNL1       -0.1474
     45 N          64.8582   82.7302   10.6638 N.2     1  UNL1       -0.1467
     46 C          64.3558   83.2448    9.3475 C.2     1  UNL1        0.1197
     47 C          63.2780   84.2508    9.6239 C.2     1  UNL1        0.0230
     48 C          62.4245   85.0832    8.7136 C.3     1  UNL1        0.0516
@<TRIPOS>BOND
     1     2     3    2
     2     3     4   am
     3     4     1    1
     4     1    38    1
     5    38    39    1
     6    39    40    2
     7    40    41    1
     8    41    42    1
     9    41    43    2
    10    43    44    1
    11    44    45    2
    12    45    46    1
    13    46    47    2
    14    47    48    1
    15     1    24    1
    16    24    25    2
    17    24    26   am
    18    26    27    1
    19    27    28    1
    20    28    29    1
    21    29    32    1
    22    32    33    1
    23    33    34    1
    24    34    35    1
    25    35    36    1
    26    36    37    1
    27    29    30    1
    28    30    31    1
    29     3     5   am
    30     5     6    1
    31     6     7    1
    32     7     8    1
    33     8    12    1
    34    12    13    1
    35    13    14    1
    36    14    15   ar
    37    15    16   ar
    38    16    17   ar
    39    17    18   ar
    40    18    19   ar
    41    19    20    1
    42    20    21   am
    43    21    22    2
    44     8     9    1
    45     9    10    1
    46    48    39    1
    47    31    26    1
    48    10     5    1
    49    47    43    1
    50    37    32    1
    51    21    12   am
    52    19    14   ar
    53     4    11    1
    54    20    23    1
