@<TRIPOS>MOLECULE
*****
 39 43 0 0 0
SMALL
GASTEIGER

@<TRIPOS>ATOM
      1 C          64.8848   91.0594   14.9953 C.3     1  UNL1        0.2250
      2 C          66.0258   91.8676   14.4523 C.2     1  UNL1        0.0436
      3 C          66.5195   93.0679   15.2045 C.2     1  UNL1        0.0288
      4 C          65.8722   93.4600   16.4996 C.2     1  UNL1        0.0896
      5 N          64.7312   92.6517   17.0426 N.am    1  UNL1       -0.1770
      6 C          64.2375   91.4515   16.2904 C.2     1  UNL1        0.2627
      7 O          63.0965   90.6433   16.8334 O.2     1  UNL1       -0.2719
      8 C          63.0840   85.4837   12.2987 C.2     1  UNL1        0.0332
      9 C          62.4685   86.3828   11.2679 C.2     1  UNL1        0.0101
     10 C          62.5882   87.8719   11.4038 C.2     1  UNL1        0.0255
     11 C          61.9726   88.7710   10.3729 C.3     1  UNL1        0.0351
     12 C          63.3236   88.4618   12.5705 C.2     1  UNL1        0.2278
     13 N          63.6029   89.8811   12.9672 N.2     1  UNL1       -0.0345
     14 C          64.3911   89.8592   14.2432 C.2     1  UNL1        0.3649
     15 N          64.5989   88.4263   14.6352 N.2     1  UNL1       -0.0380
     16 C          63.9391   87.5626   13.6014 C.2     1  UNL1        0.2184
     17 C          63.8193   86.0736   13.4655 C.3     1  UNL1        0.1186
     18 C          62.9355   78.8646   10.4510 C.3     1  UNL1        0.0948
     19 C          62.6050   79.5276   11.7552 C.2     1  UNL1        0.2262
     20 O          62.1547   78.7016   12.9235 O.2     1  UNL1       -0.2749
     21 N          62.7247   81.0166   11.8911 N.am    1  UNL1       -0.2760
     22 C          63.1750   81.8426   10.7228 C.3     1  UNL1        0.1148
     23 C          63.2948   83.3316   10.8587 C.3     1  UNL1        0.1121
     24 N          62.9642   83.9946   12.1629 N.pl3   1  UNL1       -0.3070
     25 C          62.5139   83.1688   13.3312 C.3     1  UNL1        0.1121
     26 C          62.3942   81.6797   13.1953 C.3     1  UNL1        0.1148
     27 N          66.6732   91.4757   13.1573 N.pl3   1  UNL1       -0.3329
     28 H          67.3904   90.8013   13.1498 H       1  UNL1        0.1466
     29 C          66.2278   92.1111   11.8736 C.3     1  UNL1        0.1211
     30 C          67.2439   92.6594   10.9161 C.3     1  UNL1        0.1522
     31 O          68.5541   91.9539   10.7276 O.3     1  UNL1       -0.3783
     32 H          68.5824   91.1675   11.2948 H       1  UNL1        0.2109
     33 C          66.9497   93.9131   10.1470 C.ar    1  UNL1        0.0067
     34 C          67.8465   94.3288    9.0188 C.ar    1  UNL1       -0.0018
     35 C          67.5524   95.5826    8.2497 C.ar    1  UNL1        0.0006
     36 C          66.3613   96.4207    8.6088 C.ar    1  UNL1        0.0114
     37 C          65.4645   96.0050    9.7370 C.ar    1  UNL1        0.0574
     38 CL         64.2735   96.8432   10.0961 Cl      1  UNL1       -0.0823
     39 C          65.7587   94.7513   10.5061 C.ar    1  UNL1        0.0095
@<TRIPOS>BOND
     1    18    19    1
     2    19    20    2
     3    19    21   am
     4    21    22    1
     5    22    23    1
     6    23    24    1
     7    24     8    1
     8     8     9    2
     9     9    10    1
    10    10    11    1
    11    10    12    2
    12    12    13    1
    13    13    14    2
    14    14     1    1
    15     1     2    1
    16     2    27    1
    17    27    29    1
    18    29    30    1
    19    30    31    1
    20    30    33    1
    21    33    34   ar
    22    34    35   ar
    23    35    36   ar
    24    36    37   ar
    25    37    38    1
    26    37    39   ar
    27     2     3    2
    28     3     4    1
    29     4     5    2
    30     5     6    1
    31     6     7    2
    32    14    15    1
    33    15    16    2
    34    16    17    1
    35    24    25    1
    36    25    26    1
    37    26    21    1
    38    17     8    1
    39    16    12    1
    40     6     1    1
    41    39    33   ar
    42    27    28    1
    43    31    32    1
@<TRIPOS>MOLECULE
*****
 39 43 0 0 0
SMALL
GASTEIGER

@<TRIPOS>ATOM
      1 C          62.8737   84.5761   14.0524 C.3     1  UNL1        0.2250
      2 C          62.8830   83.8226   12.7554 C.2     1  UNL1        0.0436
      3 C          62.5318   82.3644   12.7327 C.2     1  UNL1        0.0288
      4 C          62.1713   81.6598   14.0068 C.2     1  UNL1        0.0896
      5 N          62.1620   82.4132   15.3038 N.am    1  UNL1       -0.1770
      6 C          62.5132   83.8714   15.3266 C.2     1  UNL1        0.2627
      7 O          62.5038   84.6248   16.6235 O.2     1  UNL1       -0.2719
      8 C          64.5282   90.7778   13.4165 C.2     1  UNL1        0.0332
      9 C          64.2188   90.8293   14.8833 C.2     1  UNL1        0.0101
     10 C          63.7600   89.5923   15.5970 C.2     1  UNL1        0.0255
     11 C          63.4506   89.6439   17.0639 C.3     1  UNL1        0.0351
     12 C          63.6105   88.3038   14.8438 C.2     1  UNL1        0.2278
     13 N          63.1809   86.9329   15.2754 N.2     1  UNL1       -0.0345
     14 C          63.2248   86.0342   14.0753 C.2     1  UNL1        0.3649
     15 N          63.6815   86.8496   12.9020 N.2     1  UNL1       -0.0380
     16 C          63.9199   88.2523   13.3770 C.2     1  UNL1        0.2184
     17 C          64.3787   89.4893   12.6633 C.3     1  UNL1        0.1186
     18 C          66.0951   95.8883    9.0948 C.3     1  UNL1        0.0948
     19 C          66.3633   95.7257   10.5616 C.2     1  UNL1        0.2262
     20 O          67.0904   96.8000   11.3146 O.2     1  UNL1       -0.2749
     21 N          65.9046   94.4887   11.2753 N.am    1  UNL1       -0.2760
     22 C          65.1775   93.4144   10.5223 C.3     1  UNL1        0.1148
     23 C          64.7187   92.1774   11.2360 C.3     1  UNL1        0.1121
     24 N          64.9870   92.0148   12.7028 N.pl3   1  UNL1       -0.3070
     25 C          65.7140   93.0891   13.4559 C.3     1  UNL1        0.1121
     26 C          66.1729   94.3261   12.7421 C.3     1  UNL1        0.1148
     27 N          63.2435   84.5272   11.4813 N.pl3   1  UNL1       -0.3329
     28 H          64.1420   84.9137   11.3697 H       1  UNL1        0.1466
     29 C          62.2349   84.6430   10.3770 C.3     1  UNL1        0.1211
     30 C          62.4674   85.6009    9.2464 C.3     1  UNL1        0.1522
     31 O          63.5047   85.2962    8.2065 O.3     1  UNL1       -0.3783
     32 H          63.9297   84.4489    8.4123 H       1  UNL1        0.2109
     33 C          61.6628   86.8635    9.1556 C.ar    1  UNL1        0.0067
     34 C          60.4254   86.9051    8.3088 C.ar    1  UNL1       -0.0018
     35 C          59.6207   88.1677    8.2180 C.ar    1  UNL1        0.0006
     36 C          60.0534   89.3888    8.9740 C.ar    1  UNL1        0.0114
     37 C          61.2908   89.3473    9.8208 C.ar    1  UNL1        0.0574
     38 CL         61.7235   90.5684   10.5769 Cl      1  UNL1       -0.0823
     39 C          62.0955   88.0847    9.9116 C.ar    1  UNL1        0.0095
@<TRIPOS>BOND
     1    18    19    1
     2    19    20    2
     3    19    21   am
     4    21    22    1
     5    22    23    1
     6    23    24    1
     7    24     8    1
     8     8     9    2
     9     9    10    1
    10    10    11    1
    11    10    12    2
    12    12    13    1
    13    13    14    2
    14    14     1    1
    15     1     2    1
    16     2    27    1
    17    27    29    1
    18    29    30    1
    19    30    31    1
    20    30    33    1
    21    33    34   ar
    22    34    35   ar
    23    35    36   ar
    24    36    37   ar
    25    37    38    1
    26    37    39   ar
    27     2     3    2
    28     3     4    1
    29     4     5    2
    30     5     6    1
    31     6     7    2
    32    14    15    1
    33    15    16    2
    34    16    17    1
    35    24    25    1
    36    25    26    1
    37    26    21    1
    38    17     8    1
    39    16    12    1
    40     6     1    1
    41    39    33   ar
    42    27    28    1
    43    31    32    1
@<TRIPOS>MOLECULE
*****
 39 43 0 0 0
SMALL
GASTEIGER

@<TRIPOS>ATOM
      1 C          65.2612   91.8763   13.4238 C.3     1  UNL1        0.2250
      2 C          65.1469   92.3197   11.9954 C.2     1  UNL1        0.0436
      3 C          65.6261   93.6828   11.5926 C.2     1  UNL1        0.0288
      4 C          66.2197   94.6026   12.6181 C.2     1  UNL1        0.0896
      5 N          66.3340   94.1592   14.0465 N.am    1  UNL1       -0.1770
      6 C          65.8548   92.7961   14.4493 C.2     1  UNL1        0.2627
      7 O          65.9692   92.3527   15.8777 O.2     1  UNL1       -0.2719
      8 C          63.3429   85.8041   14.4493 C.2     1  UNL1        0.0332
      9 C          63.0864   86.3052   15.8396 C.2     1  UNL1        0.0101
     10 C          63.3731   87.7363   16.1859 C.2     1  UNL1        0.0255
     11 C          63.1166   88.2373   17.5763 C.3     1  UNL1        0.0351
     12 C          63.9164   88.6662   15.1418 C.2     1  UNL1        0.2278
     13 N          64.2929   90.1174   15.1884 N.2     1  UNL1       -0.0345
     14 C          64.7820   90.5132   13.8267 C.2     1  UNL1        0.3649
     15 N          64.7079   89.3066   12.9387 N.2     1  UNL1       -0.0380
     16 C          64.1729   88.1651   13.7515 C.2     1  UNL1        0.2184
     17 C          63.8861   86.7340   13.4052 C.3     1  UNL1        0.1186
     18 C          62.7314   79.4948   11.7906 C.3     1  UNL1        0.0948
     19 C          62.1960   80.0800   13.0637 C.2     1  UNL1        0.2262
     20 O          61.3739   79.2342   13.9904 O.2     1  UNL1       -0.2749
     21 N          62.4827   81.5110   13.4101 N.am    1  UNL1       -0.2760
     22 C          63.3048   82.3568   12.4834 C.3     1  UNL1        0.1148
     23 C          63.5915   83.7878   12.8298 C.3     1  UNL1        0.1121
     24 N          63.0561   84.3730   14.1029 N.pl3   1  UNL1       -0.3070
     25 C          62.2341   83.5273   15.0296 C.3     1  UNL1        0.1121
     26 C          61.9473   82.0962   14.6832 C.3     1  UNL1        0.1148
     27 N          64.5533   91.4000   10.9699 N.pl3   1  UNL1       -0.3329
     28 H          65.1263   90.7524   10.4991 H       1  UNL1        0.1466
     29 C          63.0869   91.4669   10.6615 C.3     1  UNL1        0.1211
     30 C          62.1627   90.4041   11.1775 C.3     1  UNL1        0.1522
     31 O          61.7474   90.4065   12.6189 O.3     1  UNL1       -0.3783
     32 H          62.1622   91.1562   13.0736 H       1  UNL1        0.2109
     33 C          61.6540   89.3388   10.2522 C.ar    1  UNL1        0.0067
     34 C          60.4044   89.5714    9.4556 C.ar    1  UNL1       -0.0018
     35 C          59.8957   88.5061    8.5303 C.ar    1  UNL1        0.0006
     36 C          60.6364   87.2081    8.4015 C.ar    1  UNL1        0.0114
     37 C          61.8859   86.9755    9.1980 C.ar    1  UNL1        0.0574
     38 CL         62.6267   85.6776    9.0693 Cl      1  UNL1       -0.0823
     39 C          62.3947   88.0408   10.1234 C.ar    1  UNL1        0.0095
@<TRIPOS>BOND
     1    18    19    1
     2    19    20    2
     3    19    21   am
     4    21    22    1
     5    22    23    1
     6    23    24    1
     7    24     8    1
     8     8     9    2
     9     9    10    1
    10    10    11    1
    11    10    12    2
    12    12    13    1
    13    13    14    2
    14    14     1    1
    15     1     2    1
    16     2    27    1
    17    27    29    1
    18    29    30    1
    19    30    31    1
    20    30    33    1
    21    33    34   ar
    22    34    35   ar
    23    35    36   ar
    24    36    37   ar
    25    37    38    1
    26    37    39   ar
    27     2     3    2
    28     3     4    1
    29     4     5    2
    30     5     6    1
    31     6     7    2
    32    14    15    1
    33    15    16    2
    34    16    17    1
    35    24    25    1
    36    25    26    1
    37    26    21    1
    38    17     8    1
    39    16    12    1
    40     6     1    1
    41    39    33   ar
    42    27    28    1
    43    31    32    1
@<TRIPOS>MOLECULE
*****
 39 43 0 0 0
SMALL
GASTEIGER

@<TRIPOS>ATOM
      1 C          61.2028   88.0107    9.9581 C.3     1  UNL1        0.2250
      2 C          61.0593   86.5463    9.6664 C.2     1  UNL1        0.0436
      3 C          60.1020   86.0826    8.6088 C.2     1  UNL1        0.0288
      4 C          59.2882   87.0831    7.8428 C.2     1  UNL1        0.0896
      5 N          59.4317   88.5475    8.1345 N.am    1  UNL1       -0.1770
      6 C          60.3891   89.0112    9.1921 C.2     1  UNL1        0.2627
      7 O          60.5326   90.4755    9.4837 O.2     1  UNL1       -0.2719
      8 C          65.4599   90.5923   14.0587 C.2     1  UNL1        0.0332
      9 C          65.1226   89.3909   14.8909 C.2     1  UNL1        0.0101
     10 C          64.1249   88.3884   14.3912 C.2     1  UNL1        0.0255
     11 C          63.7876   87.1869   15.2235 C.3     1  UNL1        0.0351
     12 C          63.4645   88.5875   13.0592 C.2     1  UNL1        0.2278
     13 N          62.4498   87.7751   12.3106 N.2     1  UNL1       -0.0345
     14 C          62.1601   88.4745   11.0157 C.2     1  UNL1        0.3649
     15 N          62.9956   89.7191   10.9640 N.2     1  UNL1       -0.0380
     16 C          63.8018   89.7890   12.2270 C.2     1  UNL1        0.2184
     17 C          64.7995   90.7914   12.7267 C.3     1  UNL1        0.1186
     18 C          70.8223   94.6605   15.4530 C.3     1  UNL1        0.0948
     19 C          69.4507   94.6021   16.0575 C.2     1  UNL1        0.2262
     20 O          69.0769   95.5461   17.1616 O.2     1  UNL1       -0.2749
     21 N          68.4530   93.5997   15.5578 N.am    1  UNL1       -0.2760
     22 C          68.8268   92.6557   14.4537 C.3     1  UNL1        0.1148
     23 C          67.8291   91.6532   13.9540 C.3     1  UNL1        0.1121
     24 N          66.4576   91.5948   14.5585 N.pl3   1  UNL1       -0.3070
     25 C          66.0837   92.5388   15.6625 C.3     1  UNL1        0.1121
     26 C          67.0814   93.5413   16.1623 C.3     1  UNL1        0.1148
     27 N          61.8730   85.5457   10.4323 N.pl3   1  UNL1       -0.3329
     28 H          61.6863   85.3857   11.3856 H       1  UNL1        0.1466
     29 C          62.9711   84.7888    9.7458 C.3     1  UNL1        0.1211
     30 C          63.6485   83.6491   10.4473 C.3     1  UNL1        0.1522
     31 O          64.6584   82.8135    9.7180 O.3     1  UNL1       -0.3783
     32 H          64.7547   83.1416    8.8103 H       1  UNL1        0.2109
     33 C          63.3160   83.3450   11.8780 C.ar    1  UNL1        0.0067
     34 C          63.8982   84.1825   12.9777 C.ar    1  UNL1       -0.0018
     35 C          63.5656   83.8784   14.4084 C.ar    1  UNL1        0.0006
     36 C          62.6508   82.7367   14.7394 C.ar    1  UNL1        0.0114
     37 C          62.0687   81.8991   13.6397 C.ar    1  UNL1        0.0574
     38 CL         61.1539   80.7573   13.9707 Cl      1  UNL1       -0.0823
     39 C          62.4012   82.2032   12.2090 C.ar    1  UNL1        0.0095
@<TRIPOS>BOND
     1    18    19    1
     2    19    20    2
     3    19    21   am
     4    21    22    1
     5    22    23    1
     6    23    24    1
     7    24     8    1
     8     8     9    2
     9     9    10    1
    10    10    11    1
    11    10    12    2
    12    12    13    1
    13    13    14    2
    14    14     1    1
    15     1     2    1
    16     2    27    1
    17    27    29    1
    18    29    30    1
    19    30    31    1
    20    30    33    1
    21    33    34   ar
    22    34    35   ar
    23    35    36   ar
    24    36    37   ar
    25    37    38    1
    26    37    39   ar
    27     2     3    2
    28     3     4    1
    29     4     5    2
    30     5     6    1
    31     6     7    2
    32    14    15    1
    33    15    16    2
    34    16    17    1
    35    24    25    1
    36    25    26    1
    37    26    21    1
    38    17     8    1
    39    16    12    1
    40     6     1    1
    41    39    33   ar
    42    27    28    1
    43    31    32    1
@<TRIPOS>MOLECULE
*****
 39 43 0 0 0
SMALL
GASTEIGER

@<TRIPOS>ATOM
      1 C          60.2874   88.3660    8.4571 C.3     1  UNL1        0.2250
      2 C          60.8984   88.9208    9.7096 C.2     1  UNL1        0.0436
      3 C          61.2151   88.0084   10.8574 C.2     1  UNL1        0.0288
      4 C          60.9208   86.5413   10.7526 C.2     1  UNL1        0.0896
      5 N          60.3097   85.9865    9.5001 N.am    1  UNL1       -0.1770
      6 C          59.9930   86.8989    8.3523 C.2     1  UNL1        0.2627
      7 O          59.3820   86.3442    7.0998 O.2     1  UNL1       -0.2719
      8 C          59.6675   92.3389    3.4137 C.2     1  UNL1        0.0332
      9 C          58.2024   92.1860    3.6965 C.2     1  UNL1        0.0101
     10 C          57.7440   91.3195    4.8319 C.2     1  UNL1        0.0255
     11 C          56.2788   91.1667    5.1146 C.3     1  UNL1        0.0351
     12 C          58.7508   90.6058    5.6845 C.2     1  UNL1        0.2278
     13 N          58.5992   89.6909    6.8634 N.2     1  UNL1       -0.0345
     14 C          59.9707   89.2784    7.3093 C.2     1  UNL1        0.3649
     15 N          60.9699   89.9383    6.4059 N.2     1  UNL1       -0.0380
     16 C          60.2160   90.7587    5.4017 C.2     1  UNL1        0.2184
     17 C          60.6743   91.6252    4.2663 C.3     1  UNL1        0.1186
     18 C          62.9105   96.3178   -1.1581 C.3     1  UNL1        0.0948
     19 C          61.5012   95.8049   -1.1276 C.2     1  UNL1        0.2262
     20 O          60.5504   96.1586   -2.2326 O.2     1  UNL1       -0.2749
     21 N          61.0428   94.9384    0.0077 N.am    1  UNL1       -0.2760
     22 C          61.9936   94.5847    1.1126 C.3     1  UNL1        0.1148
     23 C          61.5352   93.7182    2.2479 C.3     1  UNL1        0.1121
     24 N          60.1259   93.2054    2.2783 N.pl3   1  UNL1       -0.3070
     25 C          59.1751   93.5591    1.1735 C.3     1  UNL1        0.1121
     26 C          59.6335   94.4256    0.0381 C.3     1  UNL1        0.1148
     27 N          61.1928   90.3878    9.8145 N.pl3   1  UNL1       -0.3329
     28 H          60.4787   91.0460    9.6530 H       1  UNL1        0.1466
     29 C          62.5753   90.8522   10.1652 C.3     1  UNL1        0.1211
     30 C          62.9862   90.9651   11.6034 C.3     1  UNL1        0.1522
     31 O          62.0482   90.5255   12.6882 O.3     1  UNL1       -0.3783
     32 H          61.2265   90.1964   12.2913 H       1  UNL1        0.2109
     33 C          64.3352   91.5177   11.9568 C.ar    1  UNL1        0.0067
     34 C          65.1198   92.2900   10.9380 C.ar    1  UNL1       -0.0018
     35 C          66.4688   92.8426   11.2914 C.ar    1  UNL1        0.0006
     36 C          67.0333   92.6228   12.6637 C.ar    1  UNL1        0.0114
     37 C          66.2487   91.8504   13.6824 C.ar    1  UNL1        0.0574
     38 CL         66.8132   91.6306   15.0547 Cl      1  UNL1       -0.0823
     39 C          64.8997   91.2979   13.3290 C.ar    1  UNL1        0.0095
@<TRIPOS>BOND
     1    18    19    1
     2    19    20    2
     3    19    21   am
     4    21    22    1
     5    22    23    1
     6    23    24    1
     7    24     8    1
     8     8     9    2
     9     9    10    1
    10    10    11    1
    11    10    12    2
    12    12    13    1
    13    13    14    2
    14    14     1    1
    15     1     2    1
    16     2    27    1
    17    27    29    1
    18    29    30    1
    19    30    31    1
    20    30    33    1
    21    33    34   ar
    22    34    35   ar
    23    35    36   ar
    24    36    37   ar
    25    37    38    1
    26    37    39   ar
    27     2     3    2
    28     3     4    1
    29     4     5    2
    30     5     6    1
    31     6     7    2
    32    14    15    1
    33    15    16    2
    34    16    17    1
    35    24    25    1
    36    25    26    1
    37    26    21    1
    38    17     8    1
    39    16    12    1
    40     6     1    1
    41    39    33   ar
    42    27    28    1
    43    31    32    1
@<TRIPOS>MOLECULE
*****
 39 43 0 0 0
SMALL
GASTEIGER

@<TRIPOS>ATOM
      1 C          63.1184   84.7532   13.3276 C.3     1  UNL1        0.2250
      2 C          63.7734   85.6903   14.2985 C.2     1  UNL1        0.0436
      3 C          64.2697   85.1770   15.6178 C.2     1  UNL1        0.0288
      4 C          64.1110   83.7267   15.9660 C.2     1  UNL1        0.0896
      5 N          63.4560   82.7896   14.9951 N.am    1  UNL1       -0.1770
      6 C          62.9597   83.3029   13.6759 C.2     1  UNL1        0.2627
      7 O          62.3047   82.3658   12.7049 O.2     1  UNL1       -0.2719
      8 C          60.6718   87.5235    8.0415 C.2     1  UNL1        0.0332
      9 C          61.3257   86.3669    7.3455 C.2     1  UNL1        0.0101
     10 C          62.0826   85.3441    8.1399 C.2     1  UNL1        0.0255
     11 C          62.7366   84.1874    7.4438 C.3     1  UNL1        0.0351
     12 C          62.1854   85.4779    9.6304 C.2     1  UNL1        0.2278
     13 N          62.8595   84.6324   10.6699 N.2     1  UNL1       -0.0345
     14 C          62.6221   85.2664   12.0084 C.2     1  UNL1        0.3649
     15 N          61.8013   86.5038   11.7961 N.2     1  UNL1       -0.0380
     16 C          61.5314   86.6346   10.3264 C.2     1  UNL1        0.2184
     17 C          60.7745   87.6573    9.5320 C.3     1  UNL1        0.1186
     18 C          56.1443   91.6097    4.8706 C.3     1  UNL1        0.0948
     19 C          57.6442   91.6147    4.8641 C.2     1  UNL1        0.2262
     20 O          58.3873   92.6425    4.0631 O.2     1  UNL1       -0.2749
     21 N          58.4011   90.5919    5.6584 N.am    1  UNL1       -0.2760
     22 C          57.6580   89.5641    6.4593 C.3     1  UNL1        0.1148
     23 C          58.4149   88.5413    7.2537 C.3     1  UNL1        0.1121
     24 N          59.9149   88.5463    7.2471 N.pl3   1  UNL1       -0.3070
     25 C          60.6579   89.5741    6.4463 C.3     1  UNL1        0.1121
     26 C          59.9011   90.5969    5.6518 C.3     1  UNL1        0.1148
     27 N          63.9322   87.1407   13.9504 N.pl3   1  UNL1       -0.3329
     28 H          63.7674   87.4466   13.0293 H       1  UNL1        0.1466
     29 C          64.3421   88.1248   15.0055 C.3     1  UNL1        0.1211
     30 C          63.8450   89.5388   14.9459 C.3     1  UNL1        0.1522
     31 O          62.9581   90.0685   16.0335 O.3     1  UNL1       -0.3783
     32 H          62.8047   89.3737   16.6927 H       1  UNL1        0.2109
     33 C          64.2349   90.4231   13.7987 C.ar    1  UNL1        0.0067
     34 C          65.4097   91.3465   13.9291 C.ar    1  UNL1       -0.0018
     35 C          65.7995   92.2308   12.7819 C.ar    1  UNL1        0.0006
     36 C          65.0146   92.1916   11.5042 C.ar    1  UNL1        0.0114
     37 C          63.8398   91.2682   11.3739 C.ar    1  UNL1        0.0574
     38 CL         63.0548   91.2290   10.0963 Cl      1  UNL1       -0.0823
     39 C          63.4499   90.3839   12.5211 C.ar    1  UNL1        0.0095
@<TRIPOS>BOND
     1    18    19    1
     2    19    20    2
     3    19    21   am
     4    21    22    1
     5    22    23    1
     6    23    24    1
     7    24     8    1
     8     8     9    2
     9     9    10    1
    10    10    11    1
    11    10    12    2
    12    12    13    1
    13    13    14    2
    14    14     1    1
    15     1     2    1
    16     2    27    1
    17    27    29    1
    18    29    30    1
    19    30    31    1
    20    30    33    1
    21    33    34   ar
    22    34    35   ar
    23    35    36   ar
    24    36    37   ar
    25    37    38    1
    26    37    39   ar
    27     2     3    2
    28     3     4    1
    29     4     5    2
    30     5     6    1
    31     6     7    2
    32    14    15    1
    33    15    16    2
    34    16    17    1
    35    24    25    1
    36    25    26    1
    37    26    21    1
    38    17     8    1
    39    16    12    1
    40     6     1    1
    41    39    33   ar
    42    27    28    1
    43    31    32    1
@<TRIPOS>MOLECULE
*****
 39 43 0 0 0
SMALL
GASTEIGER

@<TRIPOS>ATOM
      1 C          63.0490   83.4050   14.1534 C.3     1  UNL1        0.2250
      2 C          63.9433   82.5660   13.2896 C.2     1  UNL1        0.0436
      3 C          63.6889   81.0940   13.1536 C.2     1  UNL1        0.0288
      4 C          62.5403   80.4609   13.8814 C.2     1  UNL1        0.0896
      5 N          61.6459   81.2999   14.7453 N.am    1  UNL1       -0.1770
      6 C          61.9003   82.7719   14.8813 C.2     1  UNL1        0.2627
      7 O          61.0060   83.6109   15.7452 O.2     1  UNL1       -0.2719
      8 C          64.3384   89.7233   14.0132 C.2     1  UNL1        0.0332
      9 C          63.9319   89.6602   15.4556 C.2     1  UNL1        0.0101
     10 C          63.5084   88.3539   16.0591 C.2     1  UNL1        0.0255
     11 C          63.1019   88.2909   17.5016 C.3     1  UNL1        0.0351
     12 C          63.4914   87.1106   15.2200 C.2     1  UNL1        0.2278
     13 N          63.1239   85.6912   15.5364 N.2     1  UNL1       -0.0345
     14 C          63.3033   84.8770   14.2895 C.2     1  UNL1        0.3649
     15 N          63.7817   85.7932   13.2024 N.2     1  UNL1       -0.0380
     16 C          63.8979   87.1737   13.7775 C.2     1  UNL1        0.2184
     17 C          64.3214   88.4800   13.1741 C.3     1  UNL1        0.1186
     18 C          65.6189   95.2973   10.2000 C.3     1  UNL1        0.0948
     19 C          66.0324   94.9485   11.5990 C.2     1  UNL1        0.2262
     20 O          66.8693   95.9059   12.3945 O.2     1  UNL1       -0.2749
     21 N          65.6089   93.6422   12.2025 N.am    1  UNL1       -0.2760
     22 C          64.7719   92.6847   11.4071 C.3     1  UNL1        0.1148
     23 C          64.3484   91.3785   12.0106 C.3     1  UNL1        0.1121
     24 N          64.7619   91.0296   13.4096 N.pl3   1  UNL1       -0.3070
     25 C          65.5989   91.9870   14.2051 C.3     1  UNL1        0.1121
     26 C          66.0224   93.2934   13.6016 C.3     1  UNL1        0.1148
     27 N          65.0920   83.1990   12.5617 N.pl3   1  UNL1       -0.3329
     28 H          65.8890   83.4921   13.0599 H       1  UNL1        0.1466
     29 C          65.0265   83.3855   11.0748 C.3     1  UNL1        0.1211
     30 C          63.7349   83.1584   10.3466 C.3     1  UNL1        0.1522
     31 O          63.2388   81.7615   10.1173 O.3     1  UNL1       -0.3783
     32 H          63.8665   81.1286   10.4998 H       1  UNL1        0.2109
     33 C          62.9395   84.3282    9.8478 C.ar    1  UNL1        0.0067
     34 C          62.9062   84.6420    8.3814 C.ar    1  UNL1       -0.0018
     35 C          62.1107   85.8118    7.8825 C.ar    1  UNL1        0.0006
     36 C          61.3486   86.6679    8.8502 C.ar    1  UNL1        0.0114
     37 C          61.3820   86.3541   10.3166 C.ar    1  UNL1        0.0574
     38 CL         60.6198   87.2102   11.2842 Cl      1  UNL1       -0.0823
     39 C          62.1774   85.1843   10.8154 C.ar    1  UNL1        0.0095
@<TRIPOS>BOND
     1    18    19    1
     2    19    20    2
     3    19    21   am
     4    21    22    1
     5    22    23    1
     6    23    24    1
     7    24     8    1
     8     8     9    2
     9     9    10    1
    10    10    11    1
    11    10    12    2
    12    12    13    1
    13    13    14    2
    14    14     1    1
    15     1     2    1
    16     2    27    1
    17    27    29    1
    18    29    30    1
    19    30    31    1
    20    30    33    1
    21    33    34   ar
    22    34    35   ar
    23    35    36   ar
    24    36    37   ar
    25    37    38    1
    26    37    39   ar
    27     2     3    2
    28     3     4    1
    29     4     5    2
    30     5     6    1
    31     6     7    2
    32    14    15    1
    33    15    16    2
    34    16    17    1
    35    24    25    1
    36    25    26    1
    37    26    21    1
    38    17     8    1
    39    16    12    1
    40     6     1    1
    41    39    33   ar
    42    27    28    1
    43    31    32    1
@<TRIPOS>MOLECULE
*****
 39 43 0 0 0
SMALL
GASTEIGER

@<TRIPOS>ATOM
      1 C          63.2468   85.6188   15.3559 C.3     1  UNL1        0.2250
      2 C          63.7580   84.5011   14.4961 C.2     1  UNL1        0.0436
      3 C          63.4001   83.0811   14.8209 C.2     1  UNL1        0.0288
      4 C          62.5311   82.7788   16.0056 C.2     1  UNL1        0.0896
      5 N          62.0199   83.8965   16.8654 N.am    1  UNL1       -0.1770
      6 C          62.3778   85.3165   16.5405 C.2     1  UNL1        0.2627
      7 O          61.8665   86.4342   17.4004 O.2     1  UNL1       -0.2719
      8 C          64.9339   91.4823   13.2639 C.2     1  UNL1        0.0332
      9 C          64.6157   91.8849   14.6733 C.2     1  UNL1        0.0101
     10 C          64.1467   90.8564   15.6594 C.2     1  UNL1        0.0255
     11 C          63.8285   91.2591   17.0689 C.3     1  UNL1        0.0351
     12 C          63.9960   89.4253   15.2359 C.2     1  UNL1        0.2278
     13 N          63.5574   88.1992   15.9805 N.2     1  UNL1       -0.0345
     14 C          63.6045   87.0389   15.0311 C.2     1  UNL1        0.3649
     15 N          64.0723   87.5478   13.6998 N.2     1  UNL1       -0.0380
     16 C          64.3142   89.0227   13.8264 C.2     1  UNL1        0.2184
     17 C          64.7832   90.0512   12.8404 C.3     1  UNL1        0.1186
     18 C          66.6180   95.3676    7.8492 C.3     1  UNL1        0.0948
     19 C          66.8097   95.5959    9.3193 C.2     1  UNL1        0.2262
     20 O          67.4704   96.8527    9.8032 O.2     1  UNL1       -0.2749
     21 N          66.3408   94.5675   10.3054 N.am    1  UNL1       -0.2760
     22 C          65.6802   93.3108    9.8215 C.3     1  UNL1        0.1148
     23 C          65.2112   92.2824   10.8077 C.3     1  UNL1        0.1121
     24 N          65.4029   92.5108   12.2777 N.pl3   1  UNL1       -0.3070
     25 C          66.0635   93.7674   12.7616 C.3     1  UNL1        0.1121
     26 C          66.5325   94.7959   11.7755 C.3     1  UNL1        0.1148
     27 N          64.6270   84.8033   13.3114 N.pl3   1  UNL1       -0.3329
     28 H          65.2027   85.6020   13.3142 H       1  UNL1        0.1466
     29 C          64.6189   83.8888   12.1225 C.3     1  UNL1        0.1211
     30 C          63.3364   83.6181   11.3932 C.3     1  UNL1        0.1522
     31 O          62.6800   82.2738   11.5038 O.3     1  UNL1       -0.3783
     32 H          63.2104   81.7015   12.0800 H       1  UNL1        0.2109
     33 C          62.7103   84.6916   10.5533 C.ar    1  UNL1        0.0067
     34 C          63.0322   84.7834    9.0912 C.ar    1  UNL1       -0.0018
     35 C          62.4060   85.8570    8.2513 C.ar    1  UNL1        0.0006
     36 C          61.4579   86.8387    8.8735 C.ar    1  UNL1        0.0114
     37 C          61.1360   86.7469   10.3356 C.ar    1  UNL1        0.0574
     38 CL         60.1878   87.7287   10.9579 Cl      1  UNL1       -0.0823
     39 C          61.7621   85.6734   11.1755 C.ar    1  UNL1        0.0095
@<TRIPOS>BOND
     1    18    19    1
     2    19    20    2
     3    19    21   am
     4    21    22    1
     5    22    23    1
     6    23    24    1
     7    24     8    1
     8     8     9    2
     9     9    10    1
    10    10    11    1
    11    10    12    2
    12    12    13    1
    13    13    14    2
    14    14     1    1
    15     1     2    1
    16     2    27    1
    17    27    29    1
    18    29    30    1
    19    30    31    1
    20    30    33    1
    21    33    34   ar
    22    34    35   ar
    23    35    36   ar
    24    36    37   ar
    25    37    38    1
    26    37    39   ar
    27     2     3    2
    28     3     4    1
    29     4     5    2
    30     5     6    1
    31     6     7    2
    32    14    15    1
    33    15    16    2
    34    16    17    1
    35    24    25    1
    36    25    26    1
    37    26    21    1
    38    17     8    1
    39    16    12    1
    40     6     1    1
    41    39    33   ar
    42    27    28    1
    43    31    32    1
@<TRIPOS>MOLECULE
*****
 39 43 0 0 0
SMALL
GASTEIGER

@<TRIPOS>ATOM
      1 C          71.0437   71.0102   13.3014 C.3     1  UNL1        0.2250
      2 C          72.0187   69.9856   13.8010 C.2     1  UNL1        0.0436
      3 C          71.6123   68.5445   13.8902 C.2     1  UNL1        0.0288
      4 C          70.2310   68.1279   13.4800 C.2     1  UNL1        0.0896
      5 N          69.2560   69.1524   12.9804 N.am    1  UNL1       -0.1770
      6 C          69.6624   70.5936   12.8912 C.2     1  UNL1        0.2627
      7 O          68.6873   71.6182   12.3916 O.2     1  UNL1       -0.2719
      8 C          72.5353   77.1900   12.2111 C.2     1  UNL1        0.0332
      9 C          73.0227   77.1404   13.6288 C.2     1  UNL1        0.0101
     10 C          72.9145   75.8676   14.4151 C.2     1  UNL1        0.0255
     11 C          73.4019   75.8181   15.8329 C.3     1  UNL1        0.0351
     12 C          72.3189   74.6443   13.7835 C.2     1  UNL1        0.2278
     13 N          72.0832   73.2584   14.3066 N.2     1  UNL1       -0.0345
     14 C          71.4500   72.4514   13.2121 C.2     1  UNL1        0.3649
     15 N          71.2945   73.3385   12.0126 N.2     1  UNL1       -0.0380
     16 C          71.8315   74.6938   12.3658 C.2     1  UNL1        0.2184
     17 C          71.9397   75.9667   11.5796 C.3     1  UNL1        0.1186
     18 C          72.4579   83.5671    9.6467 C.3     1  UNL1        0.0948
     19 C          72.9678   82.2814    9.0662 C.2     1  UNL1        0.2262
     20 O          73.5858   82.2686    7.6995 O.2     1  UNL1       -0.2749
     21 N          72.8597   81.0086    9.8524 N.am    1  UNL1       -0.2760
     22 C          72.2417   81.0214   11.2191 C.3     1  UNL1        0.1148
     23 C          72.1336   79.7485   12.0054 C.3     1  UNL1        0.1121
     24 N          72.6434   78.4629   11.4248 N.pl3   1  UNL1       -0.3070
     25 C          73.2614   78.4500   10.0582 C.3     1  UNL1        0.1121
     26 C          73.3695   79.7229    9.2719 C.3     1  UNL1        0.1148
     27 N          73.4001   70.4021   14.2112 N.pl3   1  UNL1       -0.3329
     28 H          74.1540   70.2877   13.5885 H       1  UNL1        0.1466
     29 C          73.6328   70.9930   15.5702 C.3     1  UNL1        0.1211
     30 C          72.8391   70.5054   16.7459 C.3     1  UNL1        0.1522
     31 O          72.5714   69.0391   16.9139 O.3     1  UNL1       -0.3783
     32 H          72.9782   68.5501   16.1816 H       1  UNL1        0.2109
     33 C          72.3131   71.4842   17.7535 C.ar    1  UNL1        0.0067
     34 C          70.9217   71.3311   18.2925 C.ar    1  UNL1       -0.0018
     35 C          70.3958   72.3098   19.3001 C.ar    1  UNL1        0.0006
     36 C          71.2612   73.4418   19.7688 C.ar    1  UNL1        0.0114
     37 C          72.6526   73.5949   19.2299 C.ar    1  UNL1        0.0574
     38 CL         73.5180   74.7269   19.6986 Cl      1  UNL1       -0.0823
     39 C          73.1786   72.6161   18.2222 C.ar    1  UNL1        0.0095
@<TRIPOS>BOND
     1    18    19    1
     2    19    20    2
     3    19    21   am
     4    21    22    1
     5    22    23    1
     6    23    24    1
     7    24     8    1
     8     8     9    2
     9     9    10    1
    10    10    11    1
    11    10    12    2
    12    12    13    1
    13    13    14    2
    14    14     1    1
    15     1     2    1
    16     2    27    1
    17    27    29    1
    18    29    30    1
    19    30    31    1
    20    30    33    1
    21    33    34   ar
    22    34    35   ar
    23    35    36   ar
    24    36    37   ar
    25    37    38    1
    26    37    39   ar
    27     2     3    2
    28     3     4    1
    29     4     5    2
    30     5     6    1
    31     6     7    2
    32    14    15    1
    33    15    16    2
    34    16    17    1
    35    24    25    1
    36    25    26    1
    37    26    21    1
    38    17     8    1
    39    16    12    1
    40     6     1    1
    41    39    33   ar
    42    27    28    1
    43    31    32    1
