@<TRIPOS>MOLECULE
*****
 16 18 0 0 0
SMALL
GASTEIGER

@<TRIPOS>ATOM
      1 O          63.6099   91.1161   14.5651 O.3     1  UNL1       -0.4724
      2 F          63.6071   85.5567   16.8218 F       1  UNL1       -0.1832
      3 C          63.6078   86.9465   16.2577 C.ar    1  UNL1        0.2225
      4 C          63.0611   88.0848   17.0672 C.ar    1  UNL1        0.0528
      5 C          63.0618   89.4747   16.5030 C.ar    1  UNL1        0.0424
      6 C          63.6092   89.7262   15.1293 C.ar    1  UNL1        0.1579
      7 C          64.1559   88.5879   14.3198 C.ar    1  UNL1        0.1380
      8 N          64.1552   87.1981   14.8840 N.ar    1  UNL1       -0.2133
      9 C          64.7494   91.5757   13.7048 C.3     1  UNL1        0.2210
     10 C          65.9847   92.1448   14.3374 C.3     1  UNL1        0.0983
     11 C          67.2259   91.3806   14.6916 C.3     1  UNL1        0.0209
     12 C          68.2041   92.3415   15.2999 C.3     1  UNL1        0.0172
     13 C          68.9556   93.5133   15.8586 C.3     1  UNL1        0.0171
     14 C          67.5674   93.6995   15.3217 C.3     1  UNL1        0.0541
     15 N          66.1958   93.5780   14.7268 N.3     1  UNL1       -0.2966
     16 H          66.1215   94.1750   13.9031 H       1  UNL1        0.1233
@<TRIPOS>BOND
     1     2     3    1
     2     3     4   ar
     3     4     5   ar
     4     5     6   ar
     5     6     1    1
     6     1     9    1
     7    10     9    1
     8    10    11    1
     9    12    11    1
    10    12    13    1
    11    14    13    1
    12    14    15    1
    13     6     7   ar
    14     7     8   ar
    15     8     3   ar
    16    15    10    1
    17    14    12    1
    18    15    16    1
@<TRIPOS>MOLECULE
*****
 16 18 0 0 0
SMALL
GASTEIGER

@<TRIPOS>ATOM
      1 O          64.2079   84.2801   15.6200 O.3     1  UNL1       -0.4724
      2 F          62.9703   90.0560   16.6720 F       1  UNL1       -0.1832
      3 C          63.2797   88.6120   16.4090 C.ar    1  UNL1        0.2225
      4 C          62.8704   87.5645   17.4015 C.ar    1  UNL1        0.0528
      5 C          63.1798   86.1205   17.1385 C.ar    1  UNL1        0.0424
      6 C          63.8985   85.7241   15.8830 C.ar    1  UNL1        0.1579
      7 C          64.3078   86.7716   14.8905 C.ar    1  UNL1        0.1380
      8 N          63.9984   88.2156   15.1535 N.ar    1  UNL1       -0.2133
      9 C          63.3087   83.4697   14.7342 C.3     1  UNL1        0.2210
     10 C          63.5014   83.4936   13.2468 C.3     1  UNL1        0.0983
     11 C          62.6793   84.2731   12.2637 C.3     1  UNL1        0.0209
     12 C          63.2198   84.0034   10.8906 C.3     1  UNL1        0.0172
     13 C          63.9646   83.5510    9.6698 C.3     1  UNL1        0.0171
     14 C          64.3759   83.0572   11.0252 C.3     1  UNL1        0.0541
     15 N          64.5500   82.7420   12.4813 N.3     1  UNL1       -0.2966
     16 H          65.4780   83.0319   12.7897 H       1  UNL1        0.1233
@<TRIPOS>BOND
     1     2     3    1
     2     3     4   ar
     3     4     5   ar
     4     5     6   ar
     5     6     1    1
     6     1     9    1
     7    10     9    1
     8    10    11    1
     9    12    11    1
    10    12    13    1
    11    14    13    1
    12    14    15    1
    13     6     7   ar
    14     7     8   ar
    15     8     3   ar
    16    15    10    1
    17    14    12    1
    18    15    16    1
@<TRIPOS>MOLECULE
*****
 16 18 0 0 0
SMALL
GASTEIGER

@<TRIPOS>ATOM
      1 O          63.9398   91.6930   12.9905 O.3     1  UNL1       -0.4724
      2 F          61.6413   87.0735    9.9283 F       1  UNL1       -0.1832
      3 C          62.2159   88.2284   10.6938 C.ar    1  UNL1        0.2225
      4 C          62.1419   89.6151   10.1269 C.ar    1  UNL1        0.0528
      5 C          62.7166   90.7700   10.8924 C.ar    1  UNL1        0.0424
      6 C          63.3651   90.5381   12.2249 C.ar    1  UNL1        0.1579
      7 C          63.4391   89.1514   12.7918 C.ar    1  UNL1        0.1380
      8 N          62.8645   87.9965   12.0263 N.ar    1  UNL1       -0.2133
      9 C          65.2492   92.2931   12.5719 C.3     1  UNL1        0.2210
     10 C          66.3186   92.5464   13.5928 C.3     1  UNL1        0.0983
     11 C          67.6541   91.8665   13.6579 C.3     1  UNL1        0.0209
     12 C          68.4012   92.4240   14.8331 C.3     1  UNL1        0.0172
     13 C          68.8905   93.1555   16.0478 C.3     1  UNL1        0.0171
     14 C          67.5274   93.4483   15.4943 C.3     1  UNL1        0.0541
     15 N          66.2403   93.5240   14.7278 N.3     1  UNL1       -0.2966
     16 H          66.1094   94.4677   14.3634 H       1  UNL1        0.1233
@<TRIPOS>BOND
     1     2     3    1
     2     3     4   ar
     3     4     5   ar
     4     5     6   ar
     5     6     1    1
     6     1     9    1
     7    10     9    1
     8    10    11    1
     9    12    11    1
    10    12    13    1
    11    14    13    1
    12    14    15    1
    13     6     7   ar
    14     7     8   ar
    15     8     3   ar
    16    15    10    1
    17    14    12    1
    18    15    16    1
@<TRIPOS>MOLECULE
*****
 16 18 0 0 0
SMALL
GASTEIGER

@<TRIPOS>ATOM
      1 O          62.8322   85.3436   12.7236 O.3     1  UNL1       -0.4724
      2 F          62.4279   79.4169   13.5672 F       1  UNL1       -0.1832
      3 C          62.5290   80.8986   13.3563 C.ar    1  UNL1        0.2225
      4 C          62.7922   81.4446   11.9843 C.ar    1  UNL1        0.0528
      5 C          62.8933   82.9263   11.7734 C.ar    1  UNL1        0.0424
      6 C          62.7311   83.8619   12.9345 C.ar    1  UNL1        0.1579
      7 C          62.4679   83.3159   14.3065 C.ar    1  UNL1        0.1380
      8 N          62.3668   81.8342   14.5174 N.ar    1  UNL1       -0.2133
      9 C          62.1998   85.9745   11.5186 C.3     1  UNL1        0.2210
     10 C          62.3913   87.4379   11.2507 C.3     1  UNL1        0.0983
     11 C          62.0791   88.1474    9.9665 C.3     1  UNL1        0.0209
     12 C          62.4235   89.5967   10.1421 C.3     1  UNL1        0.0172
     13 C          62.8518   90.9572   10.6064 C.3     1  UNL1        0.0171
     14 C          62.9484   89.7830   11.5348 C.3     1  UNL1        0.0541
     15 N          62.9286   88.4488   12.2201 N.3     1  UNL1       -0.2966
     16 H          62.3285   88.4916   13.0437 H       1  UNL1        0.1233
@<TRIPOS>BOND
     1     2     3    1
     2     3     4   ar
     3     4     5   ar
     4     5     6   ar
     5     6     1    1
     6     1     9    1
     7    10     9    1
     8    10    11    1
     9    12    11    1
    10    12    13    1
    11    14    13    1
    12    14    15    1
    13     6     7   ar
    14     7     8   ar
    15     8     3   ar
    16    15    10    1
    17    14    12    1
    18    15    16    1
@<TRIPOS>MOLECULE
*****
 16 18 0 0 0
SMALL
GASTEIGER

@<TRIPOS>ATOM
      1 O          62.3696   84.8249   15.6024 O.3     1  UNL1       -0.4724
      2 F          62.9177   81.3177   10.7651 F       1  UNL1       -0.1832
      3 C          62.7807   82.1945   11.9745 C.ar    1  UNL1        0.2225
      4 C          63.0234   83.6704   11.8621 C.ar    1  UNL1        0.0528
      5 C          62.8864   84.5472   13.0715 C.ar    1  UNL1        0.0424
      6 C          62.5066   83.9481   14.3931 C.ar    1  UNL1        0.1579
      7 C          62.2639   82.4722   14.5054 C.ar    1  UNL1        0.1380
      8 N          62.4009   81.5954   13.2961 N.ar    1  UNL1       -0.2133
      9 C          63.5510   85.6014   16.1035 C.3     1  UNL1        0.2210
     10 C          63.6636   87.0682   15.8104 C.3     1  UNL1        0.0983
     11 C          64.3843   87.6820   14.6468 C.3     1  UNL1        0.0209
     12 C          64.2414   89.1718   14.7466 C.3     1  UNL1        0.0172
     13 C          63.9343   90.5955   15.1053 C.3     1  UNL1        0.0171
     14 C          63.4323   89.4788   15.9718 C.3     1  UNL1        0.0541
     15 N          63.0752   88.1787   16.6293 N.3     1  UNL1       -0.2966
     16 H          62.0609   88.0786   16.6703 H       1  UNL1        0.1233
@<TRIPOS>BOND
     1     2     3    1
     2     3     4   ar
     3     4     5   ar
     4     5     6   ar
     5     6     1    1
     6     1     9    1
     7    10     9    1
     8    10    11    1
     9    12    11    1
    10    12    13    1
    11    14    13    1
    12    14    15    1
    13     6     7   ar
    14     7     8   ar
    15     8     3   ar
    16    15    10    1
    17    14    12    1
    18    15    16    1
@<TRIPOS>MOLECULE
*****
 16 18 0 0 0
SMALL
GASTEIGER

@<TRIPOS>ATOM
      1 O          64.4114   92.0001   13.1254 O.3     1  UNL1       -0.4724
      2 F          61.7826   87.6262    9.9697 F       1  UNL1       -0.1832
      3 C          62.4398   88.7197   10.7586 C.ar    1  UNL1        0.2225
      4 C          62.6553   90.0676   10.1368 C.ar    1  UNL1        0.0528
      5 C          63.3125   91.1610   10.9258 C.ar    1  UNL1        0.0424
      6 C          63.7542   90.9066   12.3365 C.ar    1  UNL1        0.1579
      7 C          63.5386   89.5587   12.9582 C.ar    1  UNL1        0.1380
      8 N          62.8814   88.4652   12.1693 N.ar    1  UNL1       -0.2133
      9 C          65.8811   92.2569   12.9711 C.3     1  UNL1        0.2210
     10 C          66.3859   93.0431   11.7976 C.3     1  UNL1        0.0983
     11 C          66.9292   92.4718   10.5215 C.3     1  UNL1        0.0209
     12 C          67.3151   93.6143    9.6294 C.3     1  UNL1        0.0172
     13 C          67.5998   94.9339    8.9755 C.3     1  UNL1        0.0171
     14 C          67.0102   94.8917   10.3541 C.3     1  UNL1        0.0541
     15 N          66.4359   94.5388   11.6941 N.3     1  UNL1       -0.2966
     16 H          65.4951   94.9234   11.7797 H       1  UNL1        0.1233
@<TRIPOS>BOND
     1     2     3    1
     2     3     4   ar
     3     4     5   ar
     4     5     6   ar
     5     6     1    1
     6     1     9    1
     7    10     9    1
     8    10    11    1
     9    12    11    1
    10    12    13    1
    11    14    13    1
    12    14    15    1
    13     6     7   ar
    14     7     8   ar
    15     8     3   ar
    16    15    10    1
    17    14    12    1
    18    15    16    1
@<TRIPOS>MOLECULE
*****
 16 18 0 0 0
SMALL
GASTEIGER

@<TRIPOS>ATOM
      1 O          62.5947   85.2204   13.3506 O.3     1  UNL1       -0.4724
      2 F          62.4190   79.2257   13.1691 F       1  UNL1       -0.1832
      3 C          62.4629   80.7244   13.2145 C.ar    1  UNL1        0.2225
      4 C          62.7407   81.5047   11.9640 C.ar    1  UNL1        0.0528
      5 C          62.7847   83.0034   12.0094 C.ar    1  UNL1        0.0424
      6 C          62.5508   83.7217   13.3052 C.ar    1  UNL1        0.1579
      7 C          62.2729   82.9413   14.5557 C.ar    1  UNL1        0.1380
      8 N          62.2290   81.4427   14.5103 N.ar    1  UNL1       -0.2133
      9 C          63.0150   85.9955   12.1371 C.3     1  UNL1        0.2210
     10 C          62.0099   86.3286   11.0747 C.3     1  UNL1        0.0983
     11 C          62.0984   85.9476    9.6266 C.3     1  UNL1        0.0209
     12 C          60.8830   86.4848    8.9307 C.3     1  UNL1        0.0172
     13 C          59.5927   87.1298    8.5197 C.3     1  UNL1        0.0171
     14 C          60.0433   87.1978    9.9488 C.3     1  UNL1        0.0541
     15 N          60.7397   87.1014   11.2738 N.3     1  UNL1       -0.2966
     16 H          60.1421   86.6183   11.9446 H       1  UNL1        0.1233
@<TRIPOS>BOND
     1     2     3    1
     2     3     4   ar
     3     4     5   ar
     4     5     6   ar
     5     6     1    1
     6     1     9    1
     7    10     9    1
     8    10    11    1
     9    12    11    1
    10    12    13    1
    11    14    13    1
    12    14    15    1
    13     6     7   ar
    14     7     8   ar
    15     8     3   ar
    16    15    10    1
    17    14    12    1
    18    15    16    1
@<TRIPOS>MOLECULE
*****
 16 18 0 0 0
SMALL
GASTEIGER

@<TRIPOS>ATOM
      1 O          62.6482   84.0270   15.3620 O.3     1  UNL1       -0.4724
      2 F          62.7718   79.5024   11.4233 F       1  UNL1       -0.1832
      3 C          62.7409   80.6335   12.4080 C.ar    1  UNL1        0.2225
      4 C          61.7805   80.5993   13.5596 C.ar    1  UNL1        0.0528
      5 C          61.7496   81.7305   14.5443 C.ar    1  UNL1        0.0424
      6 C          62.6791   82.8958   14.3773 C.ar    1  UNL1        0.1579
      7 C          63.6395   82.9300   13.2256 C.ar    1  UNL1        0.1380
      8 N          63.6704   81.7989   12.2410 N.ar    1  UNL1       -0.2133
      9 C          63.8505   84.9079   15.5302 C.3     1  UNL1        0.2210
     10 C          63.6751   86.3660   15.8355 C.3     1  UNL1        0.0983
     11 C          63.0253   86.9385   17.0602 C.3     1  UNL1        0.0209
     12 C          63.0673   88.4339   16.9513 C.3     1  UNL1        0.0172
     13 C          63.2533   89.8726   16.5696 C.3     1  UNL1        0.0171
     14 C          63.7431   88.7858   15.6592 C.3     1  UNL1        0.0541
     15 N          64.1188   87.5077   14.9695 N.3     1  UNL1       -0.2966
     16 H          65.1295   87.4698   14.8376 H       1  UNL1        0.1233
@<TRIPOS>BOND
     1     2     3    1
     2     3     4   ar
     3     4     5   ar
     4     5     6   ar
     5     6     1    1
     6     1     9    1
     7    10     9    1
     8    10    11    1
     9    12    11    1
    10    12    13    1
    11    14    13    1
    12    14    15    1
    13     6     7   ar
    14     7     8   ar
    15     8     3   ar
    16    15    10    1
    17    14    12    1
    18    15    16    1
@<TRIPOS>MOLECULE
*****
 16 18 0 0 0
SMALL
GASTEIGER

@<TRIPOS>ATOM
      1 O          61.6699   85.9998   12.0472 O.3     1  UNL1       -0.4724
      2 F          59.4370   88.8625    7.2703 F       1  UNL1       -0.1832
      3 C          59.9952   88.1468    8.4646 C.ar    1  UNL1        0.2225
      4 C          60.5117   86.7455    8.3253 C.ar    1  UNL1        0.0528
      5 C          61.0700   86.0298    9.5196 C.ar    1  UNL1        0.0424
      6 C          61.1116   86.7155   10.8530 C.ar    1  UNL1        0.1579
      7 C          60.5951   88.1168   10.9922 C.ar    1  UNL1        0.1380
      8 N          60.0369   88.8325    9.7980 N.ar    1  UNL1       -0.2133
      9 C          62.8259   85.0580   11.8845 C.3     1  UNL1        0.2210
     10 C          62.7300   83.6553   12.4073 C.3     1  UNL1        0.0983
     11 C          62.8606   82.4009   11.5953 C.3     1  UNL1        0.0209
     12 C          62.6979   81.2311   12.5200 C.3     1  UNL1        0.0172
     13 C          62.4992   80.2821   13.6644 C.3     1  UNL1        0.0171
     14 C          62.4667   81.7625   13.9035 C.3     1  UNL1        0.0541
     15 N          62.4865   83.2608   13.8339 N.3     1  UNL1       -0.2966
     16 H          63.2330   83.6250   14.4260 H       1  UNL1        0.1233
@<TRIPOS>BOND
     1     2     3    1
     2     3     4   ar
     3     4     5   ar
     4     5     6   ar
     5     6     1    1
     6     1     9    1
     7    10     9    1
     8    10    11    1
     9    12    11    1
    10    12    13    1
    11    14    13    1
    12    14    15    1
    13     6     7   ar
    14     7     8   ar
    15     8     3   ar
    16    15    10    1
    17    14    12    1
    18    15    16    1
