@<TRIPOS>MOLECULE
*****
 45 48 0 0 0
SMALL
GASTEIGER

@<TRIPOS>ATOM
      1 N          62.4118   89.5369   11.3006 N.pl3   1  UNL1       -0.3043
      2 C          63.7307   90.0212   10.7753 C.3     1  UNL1        0.1123
      3 C          64.6827   90.7389   11.6856 C.3     1  UNL1        0.1149
      4 N          64.3158   90.9724   13.1212 N.am    1  UNL1       -0.2747
      5 C          65.2677   91.6901   14.0315 C.2     1  UNL1        0.2442
      6 O          64.9008   91.9235   15.4670 O.2     1  UNL1       -0.2731
      7 C          62.9968   90.4881   13.6464 C.3     1  UNL1        0.1149
      8 C          62.0449   89.7704   12.7361 C.3     1  UNL1        0.1123
      9 C          58.6040   86.6661    7.6594 C.3     1  UNL1        0.0310
     10 C          59.5559   87.3838    8.5697 C.ar    1  UNL1       -0.0220
     11 C          59.5827   88.8833    8.5953 C.ar    1  UNL1       -0.0030
     12 C          60.5347   89.6010    9.5056 C.ar    1  UNL1        0.0139
     13 C          61.4599   88.8192   10.3903 C.ar    1  UNL1        0.0454
     14 C          61.4331   87.3197   10.3646 C.ar    1  UNL1        0.0085
     15 C          60.4811   86.6020    9.4543 C.ar    1  UNL1       -0.0057
     16 C          62.3583   86.5378   11.2494 C.3     1  UNL1        0.0953
     17 N          63.1313   87.2355   12.3291 N.am    1  UNL1       -0.3011
     18 C          63.6053   86.4680   13.5276 C.2     1  UNL1        0.2367
     19 O          64.3782   87.1656   14.6073 O.2     1  UNL1       -0.2737
     20 H          63.3275   88.1970   12.2512 H       1  UNL1        0.1497
     21 C          63.3063   85.0029   13.6463 C.3     1  UNL1        0.1284
     22 C          64.3791   83.9932   13.3641 C.3     1  UNL1        0.0267
     23 N          61.9345   84.5474   14.0473 N.3     1  UNL1       -0.3150
     24 H          61.3371   85.3603   14.1986 H       1  UNL1        0.1192
     25 H          61.9947   84.0046   14.9087 H       1  UNL1        0.1192
     26 C          62.5106   85.0584   11.0543 C.3     1  UNL1        0.0242
     27 C          63.2962   84.5324    9.8898 C.3     1  UNL1        0.0020
     28 C          64.1179   83.2865   10.0409 C.3     1  UNL1        0.0001
     29 C          63.2601   85.2521    8.5743 C.3     1  UNL1        0.0001
     30 C          66.5866   92.1743   13.5062 C.3     1  UNL1        0.1564
     31 N          67.5822   92.7978   14.4391 N.am    1  UNL1       -0.2727
     32 C          67.2655   93.7236   15.5761 C.3     1  UNL1        0.0943
     33 C          68.5568   94.1029   16.2384 C.3     1  UNL1        0.0311
     34 C          69.6715   93.4116   15.5108 C.3     1  UNL1        0.0870
     35 C          69.0692   92.6050   14.3988 C.2     1  UNL1        0.2260
     36 O          69.8218   91.7549   13.4185 O.2     1  UNL1       -0.2749
     37 C          66.9101   92.0351   12.0481 C.3     1  UNL1        0.0564
     38 C          66.8832   93.2403   11.1555 C.ar    1  UNL1       -0.0094
     39 C          66.1532   94.4774   11.5876 C.ar    1  UNL1       -0.0025
     40 C          66.1262   95.6826   10.6950 C.ar    1  UNL1        0.0111
     41 C          66.8293   95.6507    9.3703 C.ar    1  UNL1        0.0585
     42 CL         66.8024   96.8559    8.4778 Cl      1  UNL1       -0.0822
     43 C          67.5593   94.4136    8.9383 C.ar    1  UNL1        0.0225
     44 C          67.5862   93.2084    9.8309 C.ar    1  UNL1        0.0546
     45 CL         68.3162   91.9713    9.3988 Cl      1  UNL1       -0.0825
@<TRIPOS>BOND
     1     9    10    1
     2    10    11   ar
     3    11    12   ar
     4    12    13   ar
     5    13     1    1
     6     1     2    1
     7     2     3    1
     8     3     4    1
     9     4     5   am
    10     5     6    2
    11     5    30    1
    12    30    37    1
    13    37    38    1
    14    38    39   ar
    15    39    40   ar
    16    40    41   ar
    17    41    42    1
    18    41    43   ar
    19    43    44   ar
    20    44    45    1
    21    30    31    1
    22    31    32    1
    23    32    33    1
    24    33    34    1
    25    34    35    1
    26    35    36    2
    27     4     7    1
    28     7     8    1
    29    13    14   ar
    30    14    16    1
    31    16    26    1
    32    26    27    1
    33    27    28    1
    34    27    29    1
    35    16    17    1
    36    17    18   am
    37    18    19    2
    38    18    21    1
    39    21    22    1
    40    21    23    1
    41    14    15   ar
    42    15    10   ar
    43     8     1    1
    44    44    38   ar
    45    35    31   am
    46    17    20    1
    47    23    24    1
    48    23    25    1
@<TRIPOS>MOLECULE
*****
 45 48 0 0 0
SMALL
GASTEIGER

@<TRIPOS>ATOM
      1 N          62.3560   89.5260   11.5204 N.pl3   1  UNL1       -0.3043
      2 C          63.5186   90.3513   11.0544 C.3     1  UNL1        0.1123
      3 C          64.2901   91.1822   12.0364 C.3     1  UNL1        0.1149
      4 N          63.8989   91.1879   13.4845 N.am    1  UNL1       -0.2747
      5 C          64.6703   92.0189   14.4665 C.2     1  UNL1        0.2442
      6 O          64.2791   92.0246   15.9146 O.2     1  UNL1       -0.2731
      7 C          62.7362   90.3627   13.9505 C.3     1  UNL1        0.1149
      8 C          61.9648   89.5318   12.9685 C.3     1  UNL1        0.1123
      9 C          59.2702   86.2022    7.5923 C.3     1  UNL1        0.0310
     10 C          60.0416   87.0332    8.5743 C.ar    1  UNL1       -0.0220
     11 C          60.0507   88.5278    8.4481 C.ar    1  UNL1       -0.0030
     12 C          60.8221   89.3588    9.4301 C.ar    1  UNL1        0.0139
     13 C          61.5845   88.6951   10.5384 C.ar    1  UNL1        0.0454
     14 C          61.5755   87.2005   10.6646 C.ar    1  UNL1        0.0085
     15 C          60.8040   86.3695    9.6826 C.ar    1  UNL1       -0.0057
     16 C          62.3379   86.5367   11.7729 C.3     1  UNL1        0.0953
     17 N          61.8955   85.2008   12.2922 N.am    1  UNL1       -0.3011
     18 C          62.5419   83.9467   11.7830 C.2     1  UNL1        0.2367
     19 O          62.0996   82.6108   12.3023 O.2     1  UNL1       -0.2737
     20 H          61.1809   85.1471   12.9673 H       1  UNL1        0.1497
     21 C          63.6308   84.0285   10.7545 C.3     1  UNL1        0.1284
     22 C          63.3264   84.5447    9.3795 C.3     1  UNL1        0.0267
     23 N          65.0240   83.5939   11.1011 N.3     1  UNL1       -0.3150
     24 H          65.0494   83.2740   12.0693 H       1  UNL1        0.1192
     25 H          65.6639   84.3798   10.9857 H       1  UNL1        0.1192
     26 C          63.5425   87.2089   12.3618 C.3     1  UNL1        0.0242
     27 C          64.0399   86.8033   13.7176 C.3     1  UNL1        0.0020
     28 C          64.1165   85.3509   14.0848 C.3     1  UNL1        0.0001
     29 C          64.4606   87.8500   14.7062 C.3     1  UNL1        0.0001
     30 C          65.8330   92.8441   14.0005 C.3     1  UNL1        0.1564
     31 N          67.0920   92.8933   14.8145 N.am    1  UNL1       -0.2727
     32 C          67.8322   94.1336   15.2194 C.3     1  UNL1        0.0943
     33 C          69.0294   93.7178   16.0217 C.3     1  UNL1        0.0311
     34 C          69.0292   92.2205   16.1126 C.3     1  UNL1        0.0870
     35 C          67.8318   91.7110   15.3666 C.2     1  UNL1        0.2260
     36 O          67.4425   90.2718   15.2016 O.2     1  UNL1       -0.2749
     37 C          65.7367   93.6202   12.7205 C.3     1  UNL1        0.0564
     38 C          66.6222   93.2688   11.5619 C.ar    1  UNL1       -0.0094
     39 C          67.5096   92.0617   11.6354 C.ar    1  UNL1       -0.0025
     40 C          68.3952   91.7102   10.4768 C.ar    1  UNL1        0.0111
     41 C          68.3933   92.5659    9.2448 C.ar    1  UNL1        0.0585
     42 CL         69.2788   92.2144    8.0862 Cl      1  UNL1       -0.0822
     43 C          67.5058   93.7730    9.1713 C.ar    1  UNL1        0.0225
     44 C          66.6203   94.1244   10.3299 C.ar    1  UNL1        0.0546
     45 CL         65.7328   95.3314   10.2564 Cl      1  UNL1       -0.0825
@<TRIPOS>BOND
     1     9    10    1
     2    10    11   ar
     3    11    12   ar
     4    12    13   ar
     5    13     1    1
     6     1     2    1
     7     2     3    1
     8     3     4    1
     9     4     5   am
    10     5     6    2
    11     5    30    1
    12    30    37    1
    13    37    38    1
    14    38    39   ar
    15    39    40   ar
    16    40    41   ar
    17    41    42    1
    18    41    43   ar
    19    43    44   ar
    20    44    45    1
    21    30    31    1
    22    31    32    1
    23    32    33    1
    24    33    34    1
    25    34    35    1
    26    35    36    2
    27     4     7    1
    28     7     8    1
    29    13    14   ar
    30    14    16    1
    31    16    26    1
    32    26    27    1
    33    27    28    1
    34    27    29    1
    35    16    17    1
    36    17    18   am
    37    18    19    2
    38    18    21    1
    39    21    22    1
    40    21    23    1
    41    14    15   ar
    42    15    10   ar
    43     8     1    1
    44    44    38   ar
    45    35    31   am
    46    17    20    1
    47    23    24    1
    48    23    25    1
@<TRIPOS>MOLECULE
*****
 45 48 0 0 0
SMALL
GASTEIGER

@<TRIPOS>ATOM
      1 N          63.3963   85.6912   14.3142 N.pl3   1  UNL1       -0.3043
      2 C          64.0349   86.7065   13.4134 C.3     1  UNL1        0.1123
      3 C          64.2383   88.1129   13.8938 C.3     1  UNL1        0.1149
      4 N          63.8030   88.5040   15.2749 N.am    1  UNL1       -0.2747
      5 C          64.0063   89.9104   15.7552 C.2     1  UNL1        0.2442
      6 O          63.5710   90.3016   17.1363 O.2     1  UNL1       -0.2731
      7 C          63.1644   87.4888   16.1756 C.3     1  UNL1        0.1149
      8 C          62.9610   86.0824   15.6953 C.3     1  UNL1        0.1123
      9 C          62.5831   80.0656   12.3929 C.3     1  UNL1        0.0310
     10 C          62.7864   81.4720   12.8732 C.ar    1  UNL1       -0.0220
     11 C          63.3447   81.7236   14.2425 C.ar    1  UNL1       -0.0030
     12 C          63.5480   83.1300   14.7228 C.ar    1  UNL1        0.0139
     13 C          63.1930   84.2848   13.8339 C.ar    1  UNL1        0.0454
     14 C          62.6347   84.0333   12.4646 C.ar    1  UNL1        0.0085
     15 C          62.4314   82.6269   11.9843 C.ar    1  UNL1       -0.0057
     16 C          62.2797   85.1882   11.5756 C.3     1  UNL1        0.0953
     17 N          61.1466   86.0988   11.9456 N.am    1  UNL1       -0.3011
     18 C          60.6312   87.0969   10.9516 C.2     1  UNL1        0.2367
     19 O          59.4982   88.0076   11.3216 O.2     1  UNL1       -0.2737
     20 H          60.7413   86.0415   12.8410 H       1  UNL1        0.1497
     21 C          61.2489   87.1843    9.5874 C.3     1  UNL1        0.1284
     22 C          60.5849   86.5174    8.4193 C.3     1  UNL1        0.0267
     23 N          62.5305   87.9386    9.3913 N.3     1  UNL1       -0.3150
     24 H          62.8381   88.3241   10.2841 H       1  UNL1        0.1192
     25 H          62.3799   88.6978    8.7269 H       1  UNL1        0.1192
     26 C          63.0576   85.4323   10.3166 C.3     1  UNL1        0.0242
     27 C          63.4386   84.2800    9.4350 C.3     1  UNL1        0.0020
     28 C          62.9305   84.2143    8.0252 C.3     1  UNL1        0.0001
     29 C          64.3278   83.1936    9.9632 C.3     1  UNL1        0.0001
     30 C          64.6449   90.9257   14.8544 C.3     1  UNL1        0.1564
     31 N          65.9379   91.5737   15.2525 N.am    1  UNL1       -0.2727
     32 C          67.2872   91.2829   14.6653 C.3     1  UNL1        0.0943
     33 C          68.2918   92.1557   15.3574 C.3     1  UNL1        0.0311
     34 C          67.5633   92.9858   16.3724 C.3     1  UNL1        0.0870
     35 C          66.1085   92.6261   16.3075 C.2     1  UNL1        0.2260
     36 O          65.0162   93.2154   17.1499 O.2     1  UNL1       -0.2749
     37 C          63.9906   91.2930   13.5556 C.3     1  UNL1        0.0564
     38 C          64.7255   92.1388   12.5584 C.ar    1  UNL1       -0.0094
     39 C          65.6824   93.1932   13.0299 C.ar    1  UNL1       -0.0025
     40 C          66.4174   94.0391   12.0327 C.ar    1  UNL1        0.0111
     41 C          66.1954   93.8305   10.5640 C.ar    1  UNL1        0.0585
     42 CL         66.9303   94.6763    9.5668 Cl      1  UNL1       -0.0822
     43 C          65.2384   92.7760   10.0925 C.ar    1  UNL1        0.0225
     44 C          64.5035   91.9302   11.0896 C.ar    1  UNL1        0.0546
     45 CL         63.5465   90.8757   10.6181 Cl      1  UNL1       -0.0825
@<TRIPOS>BOND
     1     9    10    1
     2    10    11   ar
     3    11    12   ar
     4    12    13   ar
     5    13     1    1
     6     1     2    1
     7     2     3    1
     8     3     4    1
     9     4     5   am
    10     5     6    2
    11     5    30    1
    12    30    37    1
    13    37    38    1
    14    38    39   ar
    15    39    40   ar
    16    40    41   ar
    17    41    42    1
    18    41    43   ar
    19    43    44   ar
    20    44    45    1
    21    30    31    1
    22    31    32    1
    23    32    33    1
    24    33    34    1
    25    34    35    1
    26    35    36    2
    27     4     7    1
    28     7     8    1
    29    13    14   ar
    30    14    16    1
    31    16    26    1
    32    26    27    1
    33    27    28    1
    34    27    29    1
    35    16    17    1
    36    17    18   am
    37    18    19    2
    38    18    21    1
    39    21    22    1
    40    21    23    1
    41    14    15   ar
    42    15    10   ar
    43     8     1    1
    44    44    38   ar
    45    35    31   am
    46    17    20    1
    47    23    24    1
    48    23    25    1
@<TRIPOS>MOLECULE
*****
 45 48 0 0 0
SMALL
GASTEIGER

@<TRIPOS>ATOM
      1 N          63.6520   87.1528   14.7291 N.pl3   1  UNL1       -0.3043
      2 C          64.6974   87.7116   13.8100 C.3     1  UNL1        0.1123
      3 C          65.1054   89.1505   13.9248 C.3     1  UNL1        0.1149
      4 N          64.4679   90.0306   14.9587 N.am    1  UNL1       -0.2747
      5 C          64.8758   91.4695   15.0735 C.2     1  UNL1        0.2442
      6 O          64.2384   92.3496   16.1074 O.2     1  UNL1       -0.2731
      7 C          63.4224   89.4718   15.8778 C.3     1  UNL1        0.1149
      8 C          63.0145   88.0330   15.7630 C.3     1  UNL1        0.1123
      9 C          62.0201   81.3973   14.2700 C.3     1  UNL1        0.0310
     10 C          62.4281   82.8362   14.3848 C.ar    1  UNL1       -0.0220
     11 C          62.9658   83.3620   15.6826 C.ar    1  UNL1       -0.0030
     12 C          63.3737   84.8009   15.7973 C.ar    1  UNL1        0.0139
     13 C          63.2440   85.7139   14.6143 C.ar    1  UNL1        0.0454
     14 C          62.7063   85.1881   13.3166 C.ar    1  UNL1        0.0085
     15 C          62.2983   83.7492   13.2018 C.ar    1  UNL1       -0.0057
     16 C          62.5765   86.1011   12.1335 C.3     1  UNL1        0.0953
     17 N          63.0103   87.5330   12.2401 N.am    1  UNL1       -0.3011
     18 C          62.1268   88.6254   11.7147 C.2     1  UNL1        0.2367
     19 O          62.5606   90.0574   11.8213 O.2     1  UNL1       -0.2737
     20 H          63.8749   87.7559   12.6549 H       1  UNL1        0.1497
     21 C          60.8095   88.2859   11.0827 C.3     1  UNL1        0.1284
     22 C          60.6887   88.2215    9.5890 C.3     1  UNL1        0.0267
     23 N          59.6129   88.0109   11.9445 N.3     1  UNL1       -0.3150
     24 H          59.8740   88.0980   12.9266 H       1  UNL1        0.1192
     25 H          59.2749   87.0654   11.7652 H       1  UNL1        0.1192
     26 C          62.0130   85.5822   10.8439 C.3     1  UNL1        0.0242
     27 C          62.9249   84.9850    9.8134 C.3     1  UNL1        0.0020
     28 C          63.7913   83.8128   10.1675 C.3     1  UNL1        0.0001
     29 C          62.9703   85.5600    8.4287 C.3     1  UNL1        0.0001
     30 C          65.9213   92.0283   14.1544 C.3     1  UNL1        0.1564
     31 N          67.2183   92.5340   14.7131 N.am    1  UNL1       -0.2727
     32 C          67.3804   93.3665   15.9503 C.3     1  UNL1        0.0943
     33 C          68.8431   93.6431   16.1346 C.3     1  UNL1        0.0311
     34 C          69.5850   92.9814   15.0112 C.3     1  UNL1        0.0870
     35 C          68.5808   92.2959   14.1328 C.2     1  UNL1        0.2260
     36 O          68.8857   91.5104   12.8918 O.2     1  UNL1       -0.2749
     37 C          65.6698   92.0813   12.6766 C.3     1  UNL1        0.0564
     38 C          66.1124   93.2747   11.8829 C.ar    1  UNL1       -0.0094
     39 C          65.8481   94.6582   12.3985 C.ar    1  UNL1       -0.0025
     40 C          66.2906   95.8517   11.6048 C.ar    1  UNL1        0.0111
     41 C          66.9974   95.6615   10.2955 C.ar    1  UNL1        0.0585
     42 CL         67.4400   96.8548    9.5018 Cl      1  UNL1       -0.0822
     43 C          67.2617   94.2778    9.7799 C.ar    1  UNL1        0.0225
     44 C          66.8192   93.0845   10.5736 C.ar    1  UNL1        0.0546
     45 CL         67.0835   91.7009   10.0580 Cl      1  UNL1       -0.0825
@<TRIPOS>BOND
     1     9    10    1
     2    10    11   ar
     3    11    12   ar
     4    12    13   ar
     5    13     1    1
     6     1     2    1
     7     2     3    1
     8     3     4    1
     9     4     5   am
    10     5     6    2
    11     5    30    1
    12    30    37    1
    13    37    38    1
    14    38    39   ar
    15    39    40   ar
    16    40    41   ar
    17    41    42    1
    18    41    43   ar
    19    43    44   ar
    20    44    45    1
    21    30    31    1
    22    31    32    1
    23    32    33    1
    24    33    34    1
    25    34    35    1
    26    35    36    2
    27     4     7    1
    28     7     8    1
    29    13    14   ar
    30    14    16    1
    31    16    26    1
    32    26    27    1
    33    27    28    1
    34    27    29    1
    35    16    17    1
    36    17    18   am
    37    18    19    2
    38    18    21    1
    39    21    22    1
    40    21    23    1
    41    14    15   ar
    42    15    10   ar
    43     8     1    1
    44    44    38   ar
    45    35    31   am
    46    17    20    1
    47    23    24    1
    48    23    25    1
@<TRIPOS>MOLECULE
*****
 45 48 0 0 0
SMALL
GASTEIGER

@<TRIPOS>ATOM
      1 N          62.0576   89.1232   11.2278 N.pl3   1  UNL1       -0.3043
      2 C          63.1496   90.0402   10.7624 C.3     1  UNL1        0.1123
      3 C          63.9496   90.8217   11.7620 C.3     1  UNL1        0.1149
      4 N          63.6575   90.6864   13.2270 N.am    1  UNL1       -0.2747
      5 C          64.4574   91.4679   14.2267 C.2     1  UNL1        0.2442
      6 O          64.1653   91.3326   15.6917 O.2     1  UNL1       -0.2731
      7 C          62.5654   89.7694   13.6924 C.3     1  UNL1        0.1149
      8 C          61.7655   88.9879   12.6928 C.3     1  UNL1        0.1123
      9 C          58.8579   85.9970    7.2292 C.3     1  UNL1        0.0310
     10 C          59.6578   86.7785    8.2289 C.ar    1  UNL1       -0.0220
     11 C          59.5594   88.2749    8.2631 C.ar    1  UNL1       -0.0030
     12 C          60.3593   89.0564    9.2628 C.ar    1  UNL1        0.0139
     13 C          61.2577   88.3417   10.2281 C.ar    1  UNL1        0.0454
     14 C          61.3561   86.8453   10.1939 C.ar    1  UNL1        0.0085
     15 C          60.5562   86.0638    9.1942 C.ar    1  UNL1       -0.0057
     16 C          62.2545   86.1305   11.1593 C.3     1  UNL1        0.0953
     17 N          61.8887   86.0593   12.6123 N.am    1  UNL1       -0.3011
     18 C          62.3118   84.8787   13.4352 C.2     1  UNL1        0.2367
     19 O          61.9460   84.8075   14.8882 O.2     1  UNL1       -0.2737
     20 H          61.3710   86.7874   13.0258 H       1  UNL1        0.1497
     21 C          63.1006   83.7692   12.8051 C.3     1  UNL1        0.1284
     22 C          62.3904   82.6065   12.1779 C.3     1  UNL1        0.0267
     23 N          64.5997   83.8226   12.8024 N.3     1  UNL1       -0.3150
     24 H          64.9103   84.6758   13.2672 H       1  UNL1        0.1192
     25 H          64.9383   83.8170   11.8403 H       1  UNL1        0.1192
     26 C          63.5186   85.4869   10.6717 C.3     1  UNL1        0.0242
     27 C          63.5124   84.6889    9.4016 C.3     1  UNL1        0.0020
     28 C          63.8463   83.2268    9.4328 C.3     1  UNL1        0.0001
     29 C          63.1722   85.3529    8.1003 C.3     1  UNL1        0.0001
     30 C          65.5494   92.3849   13.7613 C.3     1  UNL1        0.1564
     31 N          66.7748   92.5802   14.6042 N.am    1  UNL1       -0.2727
     32 C          67.5133   91.5074   15.3483 C.3     1  UNL1        0.0943
     33 C          68.6717   92.1467   16.0549 C.3     1  UNL1        0.0311
     34 C          68.6491   93.6148   15.7475 C.3     1  UNL1        0.0870
     35 C          67.4768   93.8826   14.8509 C.2     1  UNL1        0.2260
     36 O          67.0767   95.2184   14.2981 O.2     1  UNL1       -0.2749
     37 C          65.4162   93.1065   12.4530 C.3     1  UNL1        0.0564
     38 C          66.4574   92.9275   11.3883 C.ar    1  UNL1       -0.0094
     39 C          67.4287   91.7876   11.4733 C.ar    1  UNL1       -0.0025
     40 C          68.4700   91.6085   10.4085 C.ar    1  UNL1        0.0111
     41 C          68.5399   92.5693    9.2587 C.ar    1  UNL1        0.0585
     42 CL         69.5811   92.3902    8.1940 Cl      1  UNL1       -0.0822
     43 C          67.5685   93.7092    9.1738 C.ar    1  UNL1        0.0225
     44 C          66.5273   93.8883   10.2385 C.ar    1  UNL1        0.0546
     45 CL         65.5560   95.0281   10.1535 Cl      1  UNL1       -0.0825
@<TRIPOS>BOND
     1     9    10    1
     2    10    11   ar
     3    11    12   ar
     4    12    13   ar
     5    13     1    1
     6     1     2    1
     7     2     3    1
     8     3     4    1
     9     4     5   am
    10     5     6    2
    11     5    30    1
    12    30    37    1
    13    37    38    1
    14    38    39   ar
    15    39    40   ar
    16    40    41   ar
    17    41    42    1
    18    41    43   ar
    19    43    44   ar
    20    44    45    1
    21    30    31    1
    22    31    32    1
    23    32    33    1
    24    33    34    1
    25    34    35    1
    26    35    36    2
    27     4     7    1
    28     7     8    1
    29    13    14   ar
    30    14    16    1
    31    16    26    1
    32    26    27    1
    33    27    28    1
    34    27    29    1
    35    16    17    1
    36    17    18   am
    37    18    19    2
    38    18    21    1
    39    21    22    1
    40    21    23    1
    41    14    15   ar
    42    15    10   ar
    43     8     1    1
    44    44    38   ar
    45    35    31   am
    46    17    20    1
    47    23    24    1
    48    23    25    1
