@<TRIPOS>MOLECULE
*****
 30 33 0 0 0
SMALL
GASTEIGER

@<TRIPOS>ATOM
      1 C          66.3460   91.1315   15.5268 C.3     1  UNL1        0.0518
      2 C          65.6671   91.3200   14.2026 C.ar    1  UNL1        0.0568
      3 N          64.4324   90.5340   13.8742 N.ar    1  UNL1       -0.2456
      4 C          63.7535   90.7225   12.5500 C.ar    1  UNL1        0.1319
      5 C          64.3092   91.6969   11.5542 C.ar    1  UNL1        0.0196
      6 C          65.5438   92.4829   11.8825 C.ar    1  UNL1       -0.0015
      7 C          66.2228   92.2944   13.2068 C.ar    1  UNL1        0.0068
      8 C          63.4302   91.6700   10.3390 C.3     1  UNL1        0.1224
      9 N          62.3312   90.6789   10.5838 N.am    1  UNL1       -0.2666
     10 C          62.5310   90.0933   11.9503 C.2     1  UNL1        0.2670
     11 O          61.6610   89.0599   12.6025 O.2     1  UNL1       -0.2682
     12 C          66.0996   93.4574   10.8867 C.ar    1  UNL1        0.0102
     13 C          65.5088   94.8313   10.7718 C.ar    1  UNL1        0.0017
     14 C          66.0645   95.8058    9.7761 C.ar    1  UNL1        0.0114
     15 C          67.2110   95.4063    8.8953 C.ar    1  UNL1        0.0585
     16 CL         67.7667   96.3808    7.8995 Cl      1  UNL1       -0.0822
     17 C          67.8018   94.0324    9.0101 C.ar    1  UNL1        0.0228
     18 C          67.2461   93.0579   10.0059 C.ar    1  UNL1        0.0585
     19 CL         67.8369   91.6839   10.1208 Cl      1  UNL1       -0.0822
     20 C          67.4575   93.0804   13.5352 C.3     1  UNL1        0.0934
     21 N          68.7527   92.3693   13.7935 N.3     1  UNL1       -0.3174
     22 H          68.6719   91.8145   14.6456 H       1  UNL1        0.1192
     23 H          69.5006   93.0541   13.9033 H       1  UNL1        0.1192
     24 C          61.2264   90.3339    9.6297 C.3     1  UNL1        0.1208
     25 C          61.0309   88.9129    9.1908 C.ar    1  UNL1       -0.0023
     26 C          59.8110   88.5314    8.4057 C.ar    1  UNL1       -0.0026
     27 C          59.6156   87.1105    7.9668 C.ar    1  UNL1       -0.0003
     28 C          60.6400   86.0709    8.3130 C.ar    1  UNL1       -0.0000
     29 C          61.8599   86.4523    9.0980 C.ar    1  UNL1       -0.0003
     30 C          62.0553   87.8734    9.5369 C.ar    1  UNL1       -0.0026
@<TRIPOS>BOND
     1     1     2    1
     2     2     3   ar
     3     3     4   ar
     4     4     5   ar
     5     5     6   ar
     6     6    12    1
     7    12    13   ar
     8    13    14   ar
     9    14    15   ar
    10    15    16    1
    11    15    17   ar
    12    17    18   ar
    13    18    19    1
    14     6     7   ar
    15     7    20    1
    16    20    21    1
    17     5     8    1
    18     8     9    1
    19     9    24    1
    20    24    25    1
    21    25    26   ar
    22    26    27   ar
    23    27    28   ar
    24    28    29   ar
    25    29    30   ar
    26     9    10   am
    27    10    11    2
    28     7     2   ar
    29    30    25   ar
    30    10     4    1
    31    18    12   ar
    32    21    22    1
    33    21    23    1
@<TRIPOS>MOLECULE
*****
 30 33 0 0 0
SMALL
GASTEIGER

@<TRIPOS>ATOM
      1 C          62.6965   90.9285   11.8823 C.3     1  UNL1        0.0518
      2 C          62.7905   89.4315   11.8599 C.ar    1  UNL1        0.0568
      3 N          63.2533   88.6909   13.0794 N.ar    1  UNL1       -0.2456
      4 C          63.3473   87.1940   13.0570 C.ar    1  UNL1        0.1319
      5 C          62.9785   86.4378   11.8152 C.ar    1  UNL1        0.0196
      6 C          62.5157   87.1785   10.5957 C.ar    1  UNL1       -0.0015
      7 C          62.4217   88.6754   10.6181 C.ar    1  UNL1        0.0068
      8 C          63.1703   84.9755   12.0887 C.3     1  UNL1        0.1224
      9 N          63.6576   84.8279   13.4996 N.am    1  UNL1       -0.2666
     10 C          63.7670   86.1990   14.0981 C.2     1  UNL1        0.2670
     11 O          64.2171   86.5189   15.4927 O.2     1  UNL1       -0.2682
     12 C          62.1468   86.4223    9.3538 C.ar    1  UNL1        0.0102
     13 C          63.2063   85.7077    8.5684 C.ar    1  UNL1        0.0017
     14 C          62.8376   84.9515    7.3265 C.ar    1  UNL1        0.0114
     15 C          61.4094   84.9101    6.8701 C.ar    1  UNL1        0.0585
     16 CL         61.0406   84.1539    5.6282 Cl      1  UNL1       -0.0822
     17 C          60.3499   85.6247    7.6554 C.ar    1  UNL1        0.0228
     18 C          60.7186   86.3809    8.8973 C.ar    1  UNL1        0.0585
     19 CL         59.6591   87.0955    9.6827 Cl      1  UNL1       -0.0822
     20 C          61.9588   89.4161    9.3985 C.3     1  UNL1        0.0934
     21 N          60.6144   90.0812    9.3902 N.3     1  UNL1       -0.3174
     22 H          59.8837   89.3718    9.4466 H       1  UNL1        0.1192
     23 H          60.5044   90.6149    8.5280 H       1  UNL1        0.1192
     24 C          63.9791   83.5360   14.1908 C.3     1  UNL1        0.1208
     25 C          63.1436   82.3179   13.9302 C.ar    1  UNL1       -0.0023
     26 C          63.6868   81.2019   13.0878 C.ar    1  UNL1       -0.0026
     27 C          62.8513   79.9837   12.8273 C.ar    1  UNL1       -0.0003
     28 C          61.4725   79.8815   13.4091 C.ar    1  UNL1       -0.0000
     29 C          60.9292   80.9974   14.2515 C.ar    1  UNL1       -0.0003
     30 C          61.7648   82.2156   14.5120 C.ar    1  UNL1       -0.0026
@<TRIPOS>BOND
     1     1     2    1
     2     2     3   ar
     3     3     4   ar
     4     4     5   ar
     5     5     6   ar
     6     6    12    1
     7    12    13   ar
     8    13    14   ar
     9    14    15   ar
    10    15    16    1
    11    15    17   ar
    12    17    18   ar
    13    18    19    1
    14     6     7   ar
    15     7    20    1
    16    20    21    1
    17     5     8    1
    18     8     9    1
    19     9    24    1
    20    24    25    1
    21    25    26   ar
    22    26    27   ar
    23    27    28   ar
    24    28    29   ar
    25    29    30   ar
    26     9    10   am
    27    10    11    2
    28     7     2   ar
    29    30    25   ar
    30    10     4    1
    31    18    12   ar
    32    21    22    1
    33    21    23    1
@<TRIPOS>MOLECULE
*****
 30 33 0 0 0
SMALL
GASTEIGER

@<TRIPOS>ATOM
      1 C          66.9729   92.9815   12.9081 C.3     1  UNL1        0.0518
      2 C          65.8031   92.0526   12.7704 C.ar    1  UNL1        0.0568
      3 N          64.9611   92.0859   11.5295 N.ar    1  UNL1       -0.2456
      4 C          63.7914   91.1571   11.3917 C.ar    1  UNL1        0.1319
      5 C          63.4636   90.1950   12.4948 C.ar    1  UNL1        0.0196
      6 C          64.3056   90.1617   13.7358 C.ar    1  UNL1       -0.0015
      7 C          65.4754   91.0906   13.8735 C.ar    1  UNL1        0.0068
      8 C          62.2577   89.4060   12.0787 C.3     1  UNL1        0.1224
      9 N          61.8402   89.8804   10.7184 N.am    1  UNL1       -0.2666
     10 C          62.7880   90.9627   10.2937 C.2     1  UNL1        0.2670
     11 O          62.7408   91.7179    8.9986 O.2     1  UNL1       -0.2682
     12 C          63.9779   89.1996   14.8390 C.ar    1  UNL1        0.0102
     13 C          64.2511   87.7353   14.6628 C.ar    1  UNL1        0.0017
     14 C          63.9234   86.7732   15.7660 C.ar    1  UNL1        0.0114
     15 C          63.3226   87.2755   17.0453 C.ar    1  UNL1        0.0585
     16 CL         62.9949   86.3133   18.1484 Cl      1  UNL1       -0.0822
     17 C          63.0494   88.7398   17.2214 C.ar    1  UNL1        0.0228
     18 C          63.3770   89.7019   16.1183 C.ar    1  UNL1        0.0585
     19 CL         63.1038   91.1663   16.2945 Cl      1  UNL1       -0.0822
     20 C          66.3174   91.0573   15.1145 C.3     1  UNL1        0.0934
     21 N          66.3845   92.2604   16.0078 N.3     1  UNL1       -0.3174
     22 H          66.8406   93.0266   15.5126 H       1  UNL1        0.1192
     23 H          66.9184   92.0320   16.8463 H       1  UNL1        0.1192
     24 C          60.6787   89.3634    9.9224 C.3     1  UNL1        0.1208
     25 C          60.7961   88.0644    9.1816 C.ar    1  UNL1       -0.0023
     26 C          59.6714   87.5955    8.3067 C.ar    1  UNL1       -0.0026
     27 C          59.7888   86.2965    7.5659 C.ar    1  UNL1       -0.0003
     28 C          61.0309   85.4663    7.7000 C.ar    1  UNL1       -0.0000
     29 C          62.1556   85.9350    8.5748 C.ar    1  UNL1       -0.0003
     30 C          62.0381   87.2341    9.3156 C.ar    1  UNL1       -0.0026
@<TRIPOS>BOND
     1     1     2    1
     2     2     3   ar
     3     3     4   ar
     4     4     5   ar
     5     5     6   ar
     6     6    12    1
     7    12    13   ar
     8    13    14   ar
     9    14    15   ar
    10    15    16    1
    11    15    17   ar
    12    17    18   ar
    13    18    19    1
    14     6     7   ar
    15     7    20    1
    16    20    21    1
    17     5     8    1
    18     8     9    1
    19     9    24    1
    20    24    25    1
    21    25    26   ar
    22    26    27   ar
    23    27    28   ar
    24    28    29   ar
    25    29    30   ar
    26     9    10   am
    27    10    11    2
    28     7     2   ar
    29    30    25   ar
    30    10     4    1
    31    18    12   ar
    32    21    22    1
    33    21    23    1
@<TRIPOS>MOLECULE
*****
 30 33 0 0 0
SMALL
GASTEIGER

@<TRIPOS>ATOM
      1 C          64.0078   91.3061   13.4771 C.3     1  UNL1        0.0518
      2 C          63.7060   89.8637   13.1965 C.ar    1  UNL1        0.0568
      3 N          64.3087   88.7908   14.0540 N.ar    1  UNL1       -0.2456
      4 C          64.0070   87.3485   13.7734 C.ar    1  UNL1        0.1319
      5 C          63.1024   86.9792   12.6353 C.ar    1  UNL1        0.0196
      6 C          62.4997   88.0521   11.7777 C.ar    1  UNL1       -0.0015
      7 C          62.8015   89.4944   12.0584 C.ar    1  UNL1        0.0068
      8 C          62.9882   85.4839   12.6003 C.3     1  UNL1        0.1224
      9 N          63.8221   84.9292   13.7169 N.am    1  UNL1       -0.2666
     10 C          64.4518   86.0815   14.4419 C.2     1  UNL1        0.2670
     11 O          65.3657   85.9840   15.6273 O.2     1  UNL1       -0.2682
     12 C          61.5951   87.6829   10.6395 C.ar    1  UNL1        0.0102
     13 C          62.1534   86.9889    9.4326 C.ar    1  UNL1        0.0017
     14 C          61.2490   86.6197    8.2943 C.ar    1  UNL1        0.0114
     15 C          59.7862   86.9443    8.3631 C.ar    1  UNL1        0.0585
     16 CL         58.8817   86.5750    7.2249 Cl      1  UNL1       -0.0822
     17 C          59.2278   87.6382    9.5701 C.ar    1  UNL1        0.0228
     18 C          60.1323   88.0075   10.7083 C.ar    1  UNL1        0.0585
     19 CL         59.5740   88.7014   11.9152 Cl      1  UNL1       -0.0822
     20 C          62.1987   90.5675   11.2008 C.3     1  UNL1        0.0934
     21 N          62.9782   91.1360   10.0523 N.3     1  UNL1       -0.3174
     22 H          63.7909   91.6388   10.4088 H       1  UNL1        0.1192
     23 H          62.3865   91.7772    9.5240 H       1  UNL1        0.1192
     24 C          63.9959   83.4770   14.0500 C.3     1  UNL1        0.1208
     25 C          63.6305   82.4275   13.0426 C.ar    1  UNL1       -0.0023
     26 C          62.9264   81.1782   13.4827 C.ar    1  UNL1       -0.0026
     27 C          62.5610   80.1287   12.4752 C.ar    1  UNL1       -0.0003
     28 C          62.8996   80.3284   11.0276 C.ar    1  UNL1       -0.0000
     29 C          63.6037   81.5777   10.5875 C.ar    1  UNL1       -0.0003
     30 C          63.9691   82.6272   11.5951 C.ar    1  UNL1       -0.0026
@<TRIPOS>BOND
     1     1     2    1
     2     2     3   ar
     3     3     4   ar
     4     4     5   ar
     5     5     6   ar
     6     6    12    1
     7    12    13   ar
     8    13    14   ar
     9    14    15   ar
    10    15    16    1
    11    15    17   ar
    12    17    18   ar
    13    18    19    1
    14     6     7   ar
    15     7    20    1
    16    20    21    1
    17     5     8    1
    18     8     9    1
    19     9    24    1
    20    24    25    1
    21    25    26   ar
    22    26    27   ar
    23    27    28   ar
    24    28    29   ar
    25    29    30   ar
    26     9    10   am
    27    10    11    2
    28     7     2   ar
    29    30    25   ar
    30    10     4    1
    31    18    12   ar
    32    21    22    1
    33    21    23    1
@<TRIPOS>MOLECULE
*****
 30 33 0 0 0
SMALL
GASTEIGER

@<TRIPOS>ATOM
      1 C          61.1854   89.6875    9.2441 C.3     1  UNL1        0.0518
      2 C          61.9162   89.0700   10.3994 C.ar    1  UNL1        0.0568
      3 N          61.8923   87.5828   10.5933 N.ar    1  UNL1       -0.2456
      4 C          62.6231   86.9652   11.7486 C.ar    1  UNL1        0.1319
      5 C          63.3777   87.8349   12.7099 C.ar    1  UNL1        0.0196
      6 C          63.4017   89.3221   12.5160 C.ar    1  UNL1       -0.0015
      7 C          62.6708   89.9396   11.3606 C.ar    1  UNL1        0.0068
      8 C          63.9991   86.9480   13.7478 C.3     1  UNL1        0.1224
      9 N          63.6284   85.5302   13.4280 N.am    1  UNL1       -0.2666
     10 C          62.7780   85.5408   12.1924 C.2     1  UNL1        0.2670
     11 O          62.1864   84.3381   11.5189 O.2     1  UNL1       -0.2682
     12 C          64.1563   90.1919   13.4772 C.ar    1  UNL1        0.0102
     13 C          65.4000   90.9010   13.0295 C.ar    1  UNL1        0.0017
     14 C          66.1547   91.7708   13.9907 C.ar    1  UNL1        0.0114
     15 C          65.6657   91.9314   15.3996 C.ar    1  UNL1        0.0585
     16 CL         66.4204   92.8012   16.3608 Cl      1  UNL1       -0.0822
     17 C          64.4220   91.2223   15.8473 C.ar    1  UNL1        0.0228
     18 C          63.6673   90.3525   14.8861 C.ar    1  UNL1        0.0585
     19 CL         62.4237   89.6434   15.3339 Cl      1  UNL1       -0.0822
     20 C          62.6947   91.4269   11.1667 C.3     1  UNL1        0.0934
     21 N          63.6136   92.0359   10.1494 N.3     1  UNL1       -0.3174
     22 H          64.5818   91.8851   10.4324 H       1  UNL1        0.1192
     23 H          63.4309   93.0372   10.0825 H       1  UNL1        0.1192
     24 C          64.0366   84.3150   14.2069 C.3     1  UNL1        0.1208
     25 C          63.3913   82.9908   13.9235 C.ar    1  UNL1       -0.0023
     26 C          62.1096   82.6191   14.6084 C.ar    1  UNL1       -0.0026
     27 C          61.4644   81.2950   14.3249 C.ar    1  UNL1       -0.0003
     28 C          62.1010   80.3425   13.3567 C.ar    1  UNL1       -0.0000
     29 C          63.3827   80.7141   12.6718 C.ar    1  UNL1       -0.0003
     30 C          64.0279   82.0383   12.9553 C.ar    1  UNL1       -0.0026
@<TRIPOS>BOND
     1     1     2    1
     2     2     3   ar
     3     3     4   ar
     4     4     5   ar
     5     5     6   ar
     6     6    12    1
     7    12    13   ar
     8    13    14   ar
     9    14    15   ar
    10    15    16    1
    11    15    17   ar
    12    17    18   ar
    13    18    19    1
    14     6     7   ar
    15     7    20    1
    16    20    21    1
    17     5     8    1
    18     8     9    1
    19     9    24    1
    20    24    25    1
    21    25    26   ar
    22    26    27   ar
    23    27    28   ar
    24    28    29   ar
    25    29    30   ar
    26     9    10   am
    27    10    11    2
    28     7     2   ar
    29    30    25   ar
    30    10     4    1
    31    18    12   ar
    32    21    22    1
    33    21    23    1
@<TRIPOS>MOLECULE
*****
 30 33 0 0 0
SMALL
GASTEIGER

@<TRIPOS>ATOM
      1 C          59.7930   89.1932    8.0906 C.3     1  UNL1        0.0518
      2 C          60.7196   88.8135    9.2076 C.ar    1  UNL1        0.0568
      3 N          61.2466   89.8674   10.1357 N.ar    1  UNL1       -0.2456
      4 C          62.1731   89.4878   11.2527 C.ar    1  UNL1        0.1319
      5 C          62.5725   88.0544   11.4414 C.ar    1  UNL1        0.0196
      6 C          62.0455   87.0005   10.5132 C.ar    1  UNL1       -0.0015
      7 C          61.1189   87.3802    9.3963 C.ar    1  UNL1        0.0068
      8 C          63.4941   87.9816   12.6227 C.3     1  UNL1        0.1224
      9 N          63.6643   89.3701   13.1640 N.am    1  UNL1       -0.2666
     10 C          62.8479   90.3010   12.3173 C.2     1  UNL1        0.2670
     11 O          62.7274   91.7846   12.5027 O.2     1  UNL1       -0.2682
     12 C          62.4448   85.5669   10.7019 C.ar    1  UNL1        0.0102
     13 C          62.1103   84.8573   11.9804 C.ar    1  UNL1        0.0017
     14 C          62.5096   83.4238   12.1691 C.ar    1  UNL1        0.0114
     15 C          63.2435   82.7000   11.0794 C.ar    1  UNL1        0.0585
     16 CL         63.6428   81.2665   11.2682 Cl      1  UNL1       -0.0822
     17 C          63.5780   83.4097    9.8010 C.ar    1  UNL1        0.0228
     18 C          63.1787   84.8432    9.6122 C.ar    1  UNL1        0.0585
     19 CL         63.5132   85.5528    8.3337 Cl      1  UNL1       -0.0822
     20 C          60.5918   86.3262    8.4681 C.3     1  UNL1        0.0934
     21 N          59.1392   86.3145    8.0942 N.3     1  UNL1       -0.3174
     22 H          58.5771   86.1108    8.9205 H       1  UNL1        0.1192
     23 H          58.9760   85.5980    7.3868 H       1  UNL1        0.1192
     24 C          64.5035   89.7594   14.3447 C.3     1  UNL1        0.1208
     25 C          65.3373   91.0052   14.2941 C.ar    1  UNL1       -0.0023
     26 C          65.9592   91.4396   12.9999 C.ar    1  UNL1       -0.0026
     27 C          66.7930   92.6854   12.9494 C.ar    1  UNL1       -0.0003
     28 C          67.0051   93.4970   14.1929 C.ar    1  UNL1       -0.0000
     29 C          66.3833   93.0627   15.4871 C.ar    1  UNL1       -0.0003
     30 C          65.5494   91.8168   15.5376 C.ar    1  UNL1       -0.0026
@<TRIPOS>BOND
     1     1     2    1
     2     2     3   ar
     3     3     4   ar
     4     4     5   ar
     5     5     6   ar
     6     6    12    1
     7    12    13   ar
     8    13    14   ar
     9    14    15   ar
    10    15    16    1
    11    15    17   ar
    12    17    18   ar
    13    18    19    1
    14     6     7   ar
    15     7    20    1
    16    20    21    1
    17     5     8    1
    18     8     9    1
    19     9    24    1
    20    24    25    1
    21    25    26   ar
    22    26    27   ar
    23    27    28   ar
    24    28    29   ar
    25    29    30   ar
    26     9    10   am
    27    10    11    2
    28     7     2   ar
    29    30    25   ar
    30    10     4    1
    31    18    12   ar
    32    21    22    1
    33    21    23    1
@<TRIPOS>MOLECULE
*****
 30 33 0 0 0
SMALL
GASTEIGER

@<TRIPOS>ATOM
      1 C          62.4159   91.1284    9.8226 C.3     1  UNL1        0.0518
      2 C          63.0281   90.4483   11.0113 C.ar    1  UNL1        0.0568
      3 N          62.6655   89.0287   11.3322 N.ar    1  UNL1       -0.2456
      4 C          63.2776   88.3486   12.5208 C.ar    1  UNL1        0.1319
      5 C          64.2523   89.0882   13.3885 C.ar    1  UNL1        0.0196
      6 C          64.6150   90.5079   13.0676 C.ar    1  UNL1       -0.0015
      7 C          64.0028   91.1879   11.8789 C.ar    1  UNL1        0.0068
      8 C          64.6906   88.1638   14.4855 C.3     1  UNL1        0.1224
      9 N          63.9866   86.8529   14.2958 N.am    1  UNL1       -0.2666
     10 C          63.1134   86.9671   13.0816 C.2     1  UNL1        0.2670
     11 O          62.2309   85.8890   12.5257 O.2     1  UNL1       -0.2682
     12 C          65.5897   91.2476   13.9353 C.ar    1  UNL1        0.0102
     13 C          66.9617   91.5657   13.4192 C.ar    1  UNL1        0.0017
     14 C          67.9365   92.3054   14.2868 C.ar    1  UNL1        0.0114
     15 C          67.5392   92.7269   15.6704 C.ar    1  UNL1        0.0585
     16 CL         68.5140   93.4665   16.5380 Cl      1  UNL1       -0.0822
     17 C          66.1672   92.4087   16.1865 C.ar    1  UNL1        0.0228
     18 C          65.1924   91.6690   15.3189 C.ar    1  UNL1        0.0585
     19 CL         63.8204   91.3509   15.8350 Cl      1  UNL1       -0.0822
     20 C          64.3654   92.6077   11.5580 C.3     1  UNL1        0.0934
     21 N          65.3233   92.9032   10.4422 N.3     1  UNL1       -0.3174
     22 H          66.2464   92.5412   10.6817 H       1  UNL1        0.1192
     23 H          65.3798   93.9118   10.3007 H       1  UNL1        0.1192
     24 C          64.1307   85.6406   15.1674 C.3     1  UNL1        0.1208
     25 C          63.7686   84.2862   14.6340 C.ar    1  UNL1       -0.0023
     26 C          64.6358   83.6306   13.6005 C.ar    1  UNL1       -0.0026
     27 C          64.2737   82.2762   13.0672 C.ar    1  UNL1       -0.0003
     28 C          63.0443   81.5773   13.5674 C.ar    1  UNL1       -0.0000
     29 C          62.1770   82.2328   14.6010 C.ar    1  UNL1       -0.0003
     30 C          62.5392   83.5873   15.1343 C.ar    1  UNL1       -0.0026
@<TRIPOS>BOND
     1     1     2    1
     2     2     3   ar
     3     3     4   ar
     4     4     5   ar
     5     5     6   ar
     6     6    12    1
     7    12    13   ar
     8    13    14   ar
     9    14    15   ar
    10    15    16    1
    11    15    17   ar
    12    17    18   ar
    13    18    19    1
    14     6     7   ar
    15     7    20    1
    16    20    21    1
    17     5     8    1
    18     8     9    1
    19     9    24    1
    20    24    25    1
    21    25    26   ar
    22    26    27   ar
    23    27    28   ar
    24    28    29   ar
    25    29    30   ar
    26     9    10   am
    27    10    11    2
    28     7     2   ar
    29    30    25   ar
    30    10     4    1
    31    18    12   ar
    32    21    22    1
    33    21    23    1
@<TRIPOS>MOLECULE
*****
 30 33 0 0 0
SMALL
GASTEIGER

@<TRIPOS>ATOM
      1 C          59.0165   87.9359    7.2390 C.3     1  UNL1        0.0518
      2 C          59.9528   87.9248    8.4109 C.ar    1  UNL1        0.0568
      3 N          60.1892   89.1822    9.1939 N.ar    1  UNL1       -0.2456
      4 C          61.1255   89.1712   10.3657 C.ar    1  UNL1        0.1319
      5 C          61.8254   87.9028   10.7546 C.ar    1  UNL1        0.0196
      6 C          61.5891   86.6454    9.9716 C.ar    1  UNL1       -0.0015
      7 C          60.6527   86.6565    8.7997 C.ar    1  UNL1        0.0068
      8 C          62.6856   88.1951   11.9481 C.3     1  UNL1        0.1224
      9 N          62.5173   89.6442   12.2969 N.am    1  UNL1       -0.2666
     10 C          61.5531   90.2475   11.3190 C.2     1  UNL1        0.2670
     11 O          61.0966   91.6762   11.2980 O.2     1  UNL1       -0.2682
     12 C          62.2890   85.3769   10.3604 C.ar    1  UNL1        0.0102
     13 C          61.9658   84.7117   11.6654 C.ar    1  UNL1        0.0017
     14 C          62.6657   83.4432   12.0542 C.ar    1  UNL1        0.0114
     15 C          63.6887   82.8400   11.1380 C.ar    1  UNL1        0.0585
     16 CL         64.3886   81.5716   11.5269 Cl      1  UNL1       -0.0822
     17 C          64.0119   83.5052    9.8330 C.ar    1  UNL1        0.0228
     18 C          63.3120   84.7737    9.4441 C.ar    1  UNL1        0.0585
     19 CL         63.6352   85.4388    8.1391 Cl      1  UNL1       -0.0822
     20 C          60.4164   85.3990    8.0166 C.3     1  UNL1        0.0934
     21 N          60.8567   85.3129    6.5853 N.3     1  UNL1       -0.3174
     22 H          60.3146   85.9687    6.0228 H       1  UNL1        0.1192
     23 H          60.7075   84.3647    6.2402 H       1  UNL1        0.1192
     24 C          63.1943   90.3638   13.4256 C.3     1  UNL1        0.1208
     25 C          64.4912   91.0792   13.1883 C.ar    1  UNL1       -0.0023
     26 C          65.5632   91.0565   14.2372 C.ar    1  UNL1       -0.0026
     27 C          66.8601   91.7719   13.9999 C.ar    1  UNL1       -0.0003
     28 C          67.0849   92.5101   12.7136 C.ar    1  UNL1       -0.0000
     29 C          66.0130   92.5329   11.6646 C.ar    1  UNL1       -0.0003
     30 C          64.7161   91.8174   11.9020 C.ar    1  UNL1       -0.0026
@<TRIPOS>BOND
     1     1     2    1
     2     2     3   ar
     3     3     4   ar
     4     4     5   ar
     5     5     6   ar
     6     6    12    1
     7    12    13   ar
     8    13    14   ar
     9    14    15   ar
    10    15    16    1
    11    15    17   ar
    12    17    18   ar
    13    18    19    1
    14     6     7   ar
    15     7    20    1
    16    20    21    1
    17     5     8    1
    18     8     9    1
    19     9    24    1
    20    24    25    1
    21    25    26   ar
    22    26    27   ar
    23    27    28   ar
    24    28    29   ar
    25    29    30   ar
    26     9    10   am
    27    10    11    2
    28     7     2   ar
    29    30    25   ar
    30    10     4    1
    31    18    12   ar
    32    21    22    1
    33    21    23    1
@<TRIPOS>MOLECULE
*****
 30 33 0 0 0
SMALL
GASTEIGER

@<TRIPOS>ATOM
      1 C          60.8948   89.3642    9.0571 C.3     1  UNL1        0.0518
      2 C          61.6542   88.7770   10.2098 C.ar    1  UNL1        0.0568
      3 N          61.7440   87.2881   10.3681 N.ar    1  UNL1       -0.2456
      4 C          62.5034   86.7010   11.5208 C.ar    1  UNL1        0.1319
      5 C          63.1729   87.6027   12.5151 C.ar    1  UNL1        0.0196
      6 C          63.0831   89.0916   12.3567 C.ar    1  UNL1       -0.0015
      7 C          62.3237   89.6787   11.2040 C.ar    1  UNL1        0.0068
      8 C          63.8461   86.7415   13.5422 C.3     1  UNL1        0.1224
      9 N          63.5926   85.3074   13.1827 N.am    1  UNL1       -0.2666
     10 C          62.7628   85.2824   11.9334 C.2     1  UNL1        0.2670
     11 O          62.2776   84.0544   11.2218 O.2     1  UNL1       -0.2682
     12 C          63.7526   89.9935   13.3510 C.ar    1  UNL1        0.0102
     13 C          63.3647   89.9327   14.7987 C.ar    1  UNL1        0.0017
     14 C          64.0342   90.8345   15.7930 C.ar    1  UNL1        0.0114
     15 C          65.0915   91.7970   15.3395 C.ar    1  UNL1        0.0585
     16 CL         65.7609   92.6987   16.3338 Cl      1  UNL1       -0.0822
     17 C          65.4794   91.8577   13.8918 C.ar    1  UNL1        0.0228
     18 C          64.8099   90.9559   12.8975 C.ar    1  UNL1        0.0585
     19 CL         65.1978   91.0166   11.4498 Cl      1  UNL1       -0.0822
     20 C          62.2338   91.1677   11.0456 C.3     1  UNL1        0.0934
     21 N          62.8902   91.8385    9.8754 N.3     1  UNL1       -0.3174
     22 H          63.9023   91.7353    9.9482 H       1  UNL1        0.1192
     23 H          62.6488   92.8295    9.8722 H       1  UNL1        0.1192
     24 C          64.0829   84.1088   13.9396 C.3     1  UNL1        0.1208
     25 C          63.3809   82.7912   13.7942 C.ar    1  UNL1       -0.0023
     26 C          63.9884   81.7061   12.9555 C.ar    1  UNL1       -0.0026
     27 C          63.2863   80.3886   12.8101 C.ar    1  UNL1       -0.0003
     28 C          61.9767   80.1561   13.5035 C.ar    1  UNL1       -0.0000
     29 C          61.3691   81.2411   14.3423 C.ar    1  UNL1       -0.0003
     30 C          62.0712   82.5587   14.4876 C.ar    1  UNL1       -0.0026
@<TRIPOS>BOND
     1     1     2    1
     2     2     3   ar
     3     3     4   ar
     4     4     5   ar
     5     5     6   ar
     6     6    12    1
     7    12    13   ar
     8    13    14   ar
     9    14    15   ar
    10    15    16    1
    11    15    17   ar
    12    17    18   ar
    13    18    19    1
    14     6     7   ar
    15     7    20    1
    16    20    21    1
    17     5     8    1
    18     8     9    1
    19     9    24    1
    20    24    25    1
    21    25    26   ar
    22    26    27   ar
    23    27    28   ar
    24    28    29   ar
    25    29    30   ar
    26     9    10   am
    27    10    11    2
    28     7     2   ar
    29    30    25   ar
    30    10     4    1
    31    18    12   ar
    32    21    22    1
    33    21    23    1
