@<TRIPOS>MOLECULE
*****
 53 60 0 0 0
SMALL
GASTEIGER

@<TRIPOS>ATOM
      1 C          61.5177   95.3272   -4.5895 C.3     1  UNL1        0.1445
      2 C          62.8992   95.0229   -4.0906 C.3     1  UNL1        0.0322
      3 C          63.0886   94.4048   -2.7370 C.3     1  UNL1        0.0049
      4 C          64.4701   94.1006   -2.2381 C.3     1  UNL1        0.0002
      5 C          61.8965   94.0910   -1.8824 C.3     1  UNL1        0.0298
      6 C          60.5150   94.3952   -2.3813 C.3     1  UNL1        0.1418
      7 O          60.3256   95.0133   -3.7348 O.3     1  UNL1       -0.3537
      8 C          59.5375   93.9775   -1.3230 C.3     1  UNL1        0.1373
      9 O          58.0447   94.1006   -1.4035 O.3     1  UNL1       -0.3820
     10 C          60.3149   93.4151   -0.1700 C.3     1  UNL1        0.0272
     11 C          58.8290   93.4096    0.0354 C.3     1  UNL1        0.0025
     12 C          59.8835   92.8482    1.1501 C.3     1  UNL1        0.0023
     13 C          58.4256   92.7781    1.4958 C.3     1  UNL1        0.0001
     14 C          57.9943   92.2112    2.8159 C.3     1  UNL1        0.0001
     15 C          59.0209   91.7144    3.7902 C.3     1  UNL1        0.0023
     16 C          58.5895   91.1475    5.1103 C.3     1  UNL1        0.0251
     17 C          57.6936   90.6990    6.2266 C.3     1  UNL1        0.0024
     18 C          57.2518   91.4885    4.5236 C.3     1  UNL1        0.0024
     19 C          59.6162   90.6507    6.0846 C.3     1  UNL1        0.1177
     20 C          61.0741   90.7208    5.7389 C.3     1  UNL1        0.0296
     21 C          61.5054   91.2878    4.4188 C.3     1  UNL1        0.0025
     22 C          60.4788   91.7845    3.4445 C.3     1  UNL1        0.0002
     23 C          61.9367   91.8547    3.0987 C.3     1  UNL1        0.0000
     24 C          60.9102   92.3514    2.1244 C.3     1  UNL1        0.0001
     25 C          62.3681   92.4216    1.7787 C.3     1  UNL1        0.0000
     26 C          62.7994   92.9885    0.4586 C.3     1  UNL1        0.0002
     27 C          61.7728   93.4852   -0.5157 C.3     1  UNL1        0.0046
     28 C          63.1868   93.6192   -0.9980 C.3     1  UNL1        0.0002
     29 H          57.6476   93.7578   -0.5876 H       1  UNL1        0.2104
     30 C          61.3283   95.9452   -5.9431 C.3     1  UNL1        0.1664
     31 C          60.0874   95.6536   -6.7338 C.3     1  UNL1        0.1156
     32 C          60.7538   94.4526   -7.3367 C.3     1  UNL1        0.0319
     33 C          59.4210   96.8547   -6.1309 C.3     1  UNL1        0.0319
     34 O          58.8465   95.3620   -7.5244 O.3     1  UNL1       -0.3843
     35 H          58.9853   94.5669   -8.0624 H       1  UNL1        0.2103
     36 O          62.3798   96.8549   -6.5059 O.3     1  UNL1       -0.3514
     37 C          64.6955   95.7010   -6.7419 C.3     1  UNL1        0.0346
     38 C          63.8084   96.7084   -6.0726 C.3     1  UNL1        0.1423
     39 O          59.1848   90.0838    7.4047 O.3     1  UNL1       -0.3320
     40 C          59.9745   88.9780    8.0400 C.3     1  UNL1        0.2518
     41 C          60.7799   89.2464    9.2768 C.3     1  UNL1        0.1343
     42 N          61.5695   88.1406    9.9121 N.3     1  UNL1       -0.2651
     43 C          61.5538   86.7665    9.3108 C.3     1  UNL1        0.1048
     44 C          60.7484   86.4981    8.0742 C.3     1  UNL1        0.1621
     45 O          59.9588   87.6039    7.4387 O.3     1  UNL1       -0.3280
     46 C          62.3748   88.4090   11.1488 C.3     1  UNL1        0.0898
     47 C          62.8058   89.6415   11.8873 C.3     1  UNL1        0.0897
     48 N          63.5138   88.7885   12.8978 N.3     1  UNL1       -0.2682
     49 C          63.0828   87.5560   12.1594 C.3     1  UNL1        0.0897
     50 C          64.3191   89.0569   14.1345 C.3     1  UNL1        0.1046
     51 C          63.6300   89.2281   15.4558 C.3     1  UNL1        0.1595
     52 O          63.3373   88.0302   16.3098 O.3     1  UNL1       -0.3496
     53 C          63.6057   86.6510   15.7846 C.3     1  UNL1        0.1742
@<TRIPOS>BOND
     1    37    38    1
     2    38    36    1
     3    30    36    1
     4    30     1    1
     5     1     2    1
     6     2     3    1
     7     3     4    1
     8     5     3    1
     9     5     6    1
    10     6     7    1
    11     6     8    1
    12     8     9    1
    13     8    10    1
    14    10    11    1
    15    10    12    1
    16    12    13    1
    17    13    14    1
    18    15    14    1
    19    15    16    1
    20    16    17    1
    21    16    18    1
    22    16    19    1
    23    19    39    1
    24    40    39    1
    25    40    41    1
    26    41    42    1
    27    42    46    1
    28    46    47    1
    29    47    48    1
    30    48    50    1
    31    50    51    1
    32    51    52    1
    33    52    53    1
    34    48    49    1
    35    42    43    1
    36    43    44    1
    37    44    45    1
    38    19    20    1
    39    20    21    1
    40    22    21    1
    41    22    23    1
    42    24    23    1
    43    24    25    1
    44    25    26    1
    45    26    27    1
    46    27    28    1
    47    30    31    1
    48    31    32    1
    49    31    33    1
    50    31    34    1
    51     7     1    1
    52    27    10    1
    53    27     5    1
    54    24    12    1
    55    22    15    1
    56    45    40    1
    57    24    22    1
    58    49    46    1
    59     9    29    1
    60    34    35    1
@<TRIPOS>MOLECULE
*****
 53 60 0 0 0
SMALL
GASTEIGER

@<TRIPOS>ATOM
      1 C          62.1388   95.4075   -4.1493 C.3     1  UNL1        0.1445
      2 C          63.4913   95.1131   -3.5714 C.3     1  UNL1        0.0322
      3 C          63.6062   94.4676   -2.2223 C.3     1  UNL1        0.0049
      4 C          64.9588   94.1732   -1.6445 C.3     1  UNL1        0.0002
      5 C          62.3685   94.1165   -1.4510 C.3     1  UNL1        0.0298
      6 C          61.0159   94.4109   -2.0288 C.3     1  UNL1        0.1418
      7 O          60.9010   95.0564   -3.3779 O.3     1  UNL1       -0.3537
      8 C          59.9815   93.9547   -1.0431 C.3     1  UNL1        0.1373
      9 O          58.4948   94.0569   -1.2143 O.3     1  UNL1       -0.3820
     10 C          60.6947   93.3783    0.1440 C.3     1  UNL1        0.0272
     11 C          59.1993   93.3455    0.2557 C.3     1  UNL1        0.0025
     12 C          60.1914   92.7752    1.4219 C.3     1  UNL1        0.0023
     13 C          58.7162   92.6752    1.6740 C.3     1  UNL1        0.0001
     14 C          58.2129   92.0722    2.9519 C.3     1  UNL1        0.0001
     15 C          59.1848   91.5692    3.9777 C.3     1  UNL1        0.0023
     16 C          58.6815   90.9662    5.2556 C.3     1  UNL1        0.0251
     17 C          57.7254   90.4791    6.3037 C.3     1  UNL1        0.0024
     18 C          57.3775   91.3000    4.5938 C.3     1  UNL1        0.0024
     19 C          59.6536   90.4632    6.2814 C.3     1  UNL1        0.1177
     20 C          61.1288   90.5632    6.0293 C.3     1  UNL1        0.0296
     21 C          61.6321   91.1662    4.7514 C.3     1  UNL1        0.0025
     22 C          60.6602   91.6692    3.7256 C.3     1  UNL1        0.0002
     23 C          62.1354   91.7692    3.4735 C.3     1  UNL1        0.0000
     24 C          61.1635   92.2722    2.4477 C.3     1  UNL1        0.0001
     25 C          62.6387   92.3722    2.1955 C.3     1  UNL1        0.0000
     26 C          63.1420   92.9753    0.9176 C.3     1  UNL1        0.0002
     27 C          62.1700   93.4783   -0.1081 C.3     1  UNL1        0.0046
     28 C          63.6089   93.6445   -0.4979 C.3     1  UNL1        0.0002
     29 H          58.0533   93.6898   -0.4324 H       1  UNL1        0.2104
     30 C          62.0238   96.0531   -5.4984 C.3     1  UNL1        0.1664
     31 C          60.7660   95.8959   -6.3003 C.3     1  UNL1        0.1156
     32 C          60.0610   96.8492   -5.3815 C.3     1  UNL1        0.0319
     33 C          61.4709   94.9425   -7.2191 C.3     1  UNL1        0.0319
     34 O          59.5081   95.7387   -7.1023 O.3     1  UNL1       -0.3843
     35 H          58.8072   96.2861   -6.7150 H       1  UNL1        0.2103
     36 O          63.1668   96.8558   -6.0455 O.3     1  UNL1       -0.3514
     37 C          65.7604   96.7035   -6.0473 C.3     1  UNL1        0.0346
     38 C          64.4273   96.1674   -6.4782 C.3     1  UNL1        0.1423
     39 O          59.1503   89.8601    7.5593 O.3     1  UNL1       -0.3320
     40 C          60.1117   89.2195    8.5160 C.3     1  UNL1        0.2518
     41 C          61.0488   90.0709    9.3204 C.3     1  UNL1        0.1343
     42 N          62.0102   89.4302   10.2771 N.3     1  UNL1       -0.2651
     43 C          62.0345   87.9382   10.4294 C.3     1  UNL1        0.1048
     44 C          61.0975   87.0868    9.6251 C.3     1  UNL1        0.1621
     45 O          60.1360   87.7274    8.6683 O.3     1  UNL1       -0.3280
     46 C          62.9472   90.2816   11.0814 C.3     1  UNL1        0.0898
     47 C          63.8941   91.4025   10.7699 C.3     1  UNL1        0.0897
     48 N          64.2725   91.4858   12.2190 N.3     1  UNL1       -0.2682
     49 C          63.3256   90.3649   12.5305 C.3     1  UNL1        0.0897
     50 C          65.2095   92.3372   13.0233 C.3     1  UNL1        0.1046
     51 C          66.6542   92.4378   12.6325 C.3     1  UNL1        0.1595
     52 O          67.0755   93.3956   11.5578 O.3     1  UNL1       -0.3496
     53 C          66.2695   94.6339   11.2987 C.3     1  UNL1        0.1742
@<TRIPOS>BOND
     1    37    38    1
     2    38    36    1
     3    30    36    1
     4    30     1    1
     5     1     2    1
     6     2     3    1
     7     3     4    1
     8     5     3    1
     9     5     6    1
    10     6     7    1
    11     6     8    1
    12     8     9    1
    13     8    10    1
    14    10    11    1
    15    10    12    1
    16    12    13    1
    17    13    14    1
    18    15    14    1
    19    15    16    1
    20    16    17    1
    21    16    18    1
    22    16    19    1
    23    19    39    1
    24    40    39    1
    25    40    41    1
    26    41    42    1
    27    42    46    1
    28    46    47    1
    29    47    48    1
    30    48    50    1
    31    50    51    1
    32    51    52    1
    33    52    53    1
    34    48    49    1
    35    42    43    1
    36    43    44    1
    37    44    45    1
    38    19    20    1
    39    20    21    1
    40    22    21    1
    41    22    23    1
    42    24    23    1
    43    24    25    1
    44    25    26    1
    45    26    27    1
    46    27    28    1
    47    30    31    1
    48    31    32    1
    49    31    33    1
    50    31    34    1
    51     7     1    1
    52    27    10    1
    53    27     5    1
    54    24    12    1
    55    22    15    1
    56    45    40    1
    57    24    22    1
    58    49    46    1
    59     9    29    1
    60    34    35    1
@<TRIPOS>MOLECULE
*****
 53 60 0 0 0
SMALL
GASTEIGER

@<TRIPOS>ATOM
      1 C          61.7112   95.4392   -4.2093 C.3     1  UNL1        0.1445
      2 C          63.0897   95.1304   -3.7048 C.3     1  UNL1        0.0322
      3 C          63.2694   94.4714   -2.3692 C.3     1  UNL1        0.0049
      4 C          64.6479   94.1627   -1.8648 C.3     1  UNL1        0.0002
      5 C          62.0707   94.1213   -1.5383 C.3     1  UNL1        0.0298
      6 C          60.6922   94.4300   -2.0429 C.3     1  UNL1        0.1418
      7 O          60.5125   95.0890   -3.3783 O.3     1  UNL1       -0.3537
      8 C          59.7067   93.9713   -1.0092 C.3     1  UNL1        0.1373
      9 O          58.2140   94.0849   -1.1025 O.3     1  UNL1       -0.3820
     10 C          60.4761   93.3791    0.1341 C.3     1  UNL1        0.0272
     11 C          58.9882   93.3552    0.3226 C.3     1  UNL1        0.0025
     12 C          60.0351   92.7674    1.4308 C.3     1  UNL1        0.0023
     13 C          58.5742   92.6747    1.7578 C.3     1  UNL1        0.0001
     14 C          58.1332   92.0630    3.0545 C.3     1  UNL1        0.0001
     15 C          59.1531   91.5440    4.0241 C.3     1  UNL1        0.0023
     16 C          58.7121   90.9323    5.3208 C.3     1  UNL1        0.0251
     17 C          57.8079   90.4417    6.4124 C.3     1  UNL1        0.0024
     18 C          57.3781   91.2809    4.7302 C.3     1  UNL1        0.0024
     19 C          59.7322   90.4133    6.2905 C.3     1  UNL1        0.1177
     20 C          61.1931   90.5059    5.9635 C.3     1  UNL1        0.0296
     21 C          61.6341   91.1176    4.6668 C.3     1  UNL1        0.0025
     22 C          60.6142   91.6367    3.6972 C.3     1  UNL1        0.0002
     23 C          62.0751   91.7293    3.3701 C.3     1  UNL1        0.0000
     24 C          61.0552   92.2484    2.4005 C.3     1  UNL1        0.0001
     25 C          62.5161   92.3410    2.0735 C.3     1  UNL1        0.0000
     26 C          62.9571   92.9527    0.7768 C.3     1  UNL1        0.0002
     27 C          61.9372   93.4718   -0.1929 C.3     1  UNL1        0.0046
     28 C          63.3552   93.6322   -0.6549 C.3     1  UNL1        0.0002
     29 H          57.8108   93.7134   -0.3023 H       1  UNL1        0.2104
     30 C          61.5315   96.0981   -5.5448 C.3     1  UNL1        0.1664
     31 C          60.2161   95.9992   -6.2590 C.3     1  UNL1        0.1156
     32 C          59.5794   96.8556   -5.2049 C.3     1  UNL1        0.0319
     33 C          60.8528   95.1427   -7.3131 C.3     1  UNL1        0.0319
     34 O          58.9007   95.9003   -6.9732 O.3     1  UNL1       -0.3843
     35 H          58.2290   96.4011   -6.4844 H       1  UNL1        0.2103
     36 O          62.6671   96.8559   -6.1661 O.3     1  UNL1       -0.3514
     37 C          64.7026   95.6159   -7.2000 C.3     1  UNL1        0.0346
     38 C          64.0693   96.3367   -6.0470 C.3     1  UNL1        0.1423
     39 O          59.2912   89.8016    7.5872 O.3     1  UNL1       -0.3320
     40 C          60.3041   89.4687    8.6422 C.3     1  UNL1        0.2518
     41 C          60.7760   88.0546    8.8093 C.3     1  UNL1        0.1343
     42 N          61.7889   87.7217    9.8644 N.3     1  UNL1       -0.2651
     43 C          62.3299   88.8028   10.7524 C.3     1  UNL1        0.1048
     44 C          61.8581   90.2168   10.5853 C.3     1  UNL1        0.1621
     45 O          60.8451   90.5498    9.5302 O.3     1  UNL1       -0.3280
     46 C          62.2607   86.3078   10.0315 C.3     1  UNL1        0.0898
     47 C          63.1366   85.3814    9.2411 C.3     1  UNL1        0.0897
     48 N          62.9280   84.3080   10.2678 N.3     1  UNL1       -0.2682
     49 C          62.0521   85.2343   11.0582 C.3     1  UNL1        0.0897
     50 C          63.3999   82.8940   10.4349 C.3     1  UNL1        0.1046
     51 C          64.2685   82.5260   11.6012 C.3     1  UNL1        0.1595
     52 O          63.8110   81.4832   12.5775 O.3     1  UNL1       -0.3496
     53 C          62.3480   81.3111   12.8603 C.3     1  UNL1        0.1742
@<TRIPOS>BOND
     1    37    38    1
     2    38    36    1
     3    30    36    1
     4    30     1    1
     5     1     2    1
     6     2     3    1
     7     3     4    1
     8     5     3    1
     9     5     6    1
    10     6     7    1
    11     6     8    1
    12     8     9    1
    13     8    10    1
    14    10    11    1
    15    10    12    1
    16    12    13    1
    17    13    14    1
    18    15    14    1
    19    15    16    1
    20    16    17    1
    21    16    18    1
    22    16    19    1
    23    19    39    1
    24    40    39    1
    25    40    41    1
    26    41    42    1
    27    42    46    1
    28    46    47    1
    29    47    48    1
    30    48    50    1
    31    50    51    1
    32    51    52    1
    33    52    53    1
    34    48    49    1
    35    42    43    1
    36    43    44    1
    37    44    45    1
    38    19    20    1
    39    20    21    1
    40    22    21    1
    41    22    23    1
    42    24    23    1
    43    24    25    1
    44    25    26    1
    45    26    27    1
    46    27    28    1
    47    30    31    1
    48    31    32    1
    49    31    33    1
    50    31    34    1
    51     7     1    1
    52    27    10    1
    53    27     5    1
    54    24    12    1
    55    22    15    1
    56    45    40    1
    57    24    22    1
    58    49    46    1
    59     9    29    1
    60    34    35    1
@<TRIPOS>MOLECULE
*****
 53 60 0 0 0
SMALL
GASTEIGER

@<TRIPOS>ATOM
      1 C          63.0803   95.5658   -3.3452 C.3     1  UNL1        0.1445
      2 C          64.3648   95.1155   -2.7147 C.3     1  UNL1        0.0322
      3 C          64.3401   94.3636   -1.4170 C.3     1  UNL1        0.0049
      4 C          65.6247   93.9134   -0.7866 C.3     1  UNL1        0.0002
      5 C          63.0310   94.0619   -0.7497 C.3     1  UNL1        0.0298
      6 C          61.7466   94.5122   -1.3801 C.3     1  UNL1        0.1418
      7 O          61.7712   95.2641   -2.6778 O.3     1  UNL1       -0.3537
      8 C          60.6173   94.0729   -0.4960 C.3     1  UNL1        0.1373
      9 O          59.1578   94.3131   -0.7449 O.3     1  UNL1       -0.3820
     10 C          61.2038   93.3511    0.6809 C.3     1  UNL1        0.0272
     11 C          59.7065   93.4369    0.7022 C.3     1  UNL1        0.0025
     12 C          60.5723   92.6991    1.8750 C.3     1  UNL1        0.0023
     13 C          59.0806   92.7058    2.0319 C.3     1  UNL1        0.0001
     14 C          58.4490   92.0538    3.2261 C.3     1  UNL1        0.0001
     15 C          59.3092   91.3951    4.2634 C.3     1  UNL1        0.0023
     16 C          58.6777   90.7431    5.4576 C.3     1  UNL1        0.0251
     17 C          57.6198   90.2618    6.4058 C.3     1  UNL1        0.0024
     18 C          57.4501   91.2347    4.7495 C.3     1  UNL1        0.0024
     19 C          59.5380   90.0843    6.4949 C.3     1  UNL1        0.1177
     20 C          61.0297   90.0776    6.3381 C.3     1  UNL1        0.0296
     21 C          61.6612   90.7296    5.1439 C.3     1  UNL1        0.0025
     22 C          60.8010   91.3883    4.1066 C.3     1  UNL1        0.0002
     23 C          62.2928   91.3816    3.9498 C.3     1  UNL1        0.0000
     24 C          61.4326   92.0403    2.9124 C.3     1  UNL1        0.0001
     25 C          62.9243   92.0336    2.7556 C.3     1  UNL1        0.0000
     26 C          63.5559   92.6856    1.5614 C.3     1  UNL1        0.0002
     27 C          62.6957   93.3443    0.5241 C.3     1  UNL1        0.0046
     28 C          64.1654   93.4167    0.2334 C.3     1  UNL1        0.0002
     29 H          58.6387   93.9273   -0.0220 H       1  UNL1        0.2104
     30 C          63.1049   96.3177   -4.6429 C.3     1  UNL1        0.1664
     31 C          64.4044   96.5322   -5.3608 C.3     1  UNL1        0.1156
     32 C          63.7269   96.2542   -6.6700 C.3     1  UNL1        0.0319
     33 C          65.0819   96.8101   -4.0517 C.3     1  UNL1        0.0319
     34 O          65.7038   96.7467   -6.0788 O.3     1  UNL1       -0.3843
     35 H          65.5709   96.6235   -7.0317 H       1  UNL1        0.2103
     36 O          61.8301   96.8550   -5.2226 O.3     1  UNL1       -0.3514
     37 C          60.0611   95.7385   -6.7633 C.3     1  UNL1        0.0346
     38 C          60.6465   95.9506   -5.3986 C.3     1  UNL1        0.1423
     39 O          58.9064   89.4323    7.6891 O.3     1  UNL1       -0.3320
     40 C          59.7608   88.9799    8.8360 C.3     1  UNL1        0.2518
     41 C          60.8133   89.8922    9.3927 C.3     1  UNL1        0.1343
     42 N          61.6677   89.4397   10.5396 N.3     1  UNL1       -0.2651
     43 C          61.4695   88.0750   11.1298 C.3     1  UNL1        0.1048
     44 C          60.4170   87.1628   10.5731 C.3     1  UNL1        0.1621
     45 O          59.5626   87.6152    9.4262 O.3     1  UNL1       -0.3280
     46 C          62.7202   90.3520   11.0963 C.3     1  UNL1        0.0898
     47 C          63.4214   90.4818   12.4160 C.3     1  UNL1        0.0897
     48 N          64.2088   91.6423   11.8836 N.3     1  UNL1       -0.2682
     49 C          63.5075   91.5125   10.5639 C.3     1  UNL1        0.0897
     50 C          65.2613   92.5545   12.4403 C.3     1  UNL1        0.1046
     51 C          66.7038   92.1447   12.4056 C.3     1  UNL1        0.1595
     52 O          67.7133   92.8828   13.2338 O.3     1  UNL1       -0.3496
     53 C          67.3042   93.5062   14.5353 C.3     1  UNL1        0.1742
@<TRIPOS>BOND
     1    37    38    1
     2    38    36    1
     3    30    36    1
     4    30     1    1
     5     1     2    1
     6     2     3    1
     7     3     4    1
     8     5     3    1
     9     5     6    1
    10     6     7    1
    11     6     8    1
    12     8     9    1
    13     8    10    1
    14    10    11    1
    15    10    12    1
    16    12    13    1
    17    13    14    1
    18    15    14    1
    19    15    16    1
    20    16    17    1
    21    16    18    1
    22    16    19    1
    23    19    39    1
    24    40    39    1
    25    40    41    1
    26    41    42    1
    27    42    46    1
    28    46    47    1
    29    47    48    1
    30    48    50    1
    31    50    51    1
    32    51    52    1
    33    52    53    1
    34    48    49    1
    35    42    43    1
    36    43    44    1
    37    44    45    1
    38    19    20    1
    39    20    21    1
    40    22    21    1
    41    22    23    1
    42    24    23    1
    43    24    25    1
    44    25    26    1
    45    26    27    1
    46    27    28    1
    47    30    31    1
    48    31    32    1
    49    31    33    1
    50    31    34    1
    51     7     1    1
    52    27    10    1
    53    27     5    1
    54    24    12    1
    55    22    15    1
    56    45    40    1
    57    24    22    1
    58    49    46    1
    59     9    29    1
    60    34    35    1
@<TRIPOS>MOLECULE
*****
 53 60 0 0 0
SMALL
GASTEIGER

@<TRIPOS>ATOM
      1 C          63.7424   94.9980   -4.7209 C.3     1  UNL1        0.1445
      2 C          62.2772   95.2735   -4.8861 C.3     1  UNL1        0.0322
      3 C          61.3186   94.9170   -3.7887 C.3     1  UNL1        0.0049
      4 C          59.8534   95.1925   -3.9540 C.3     1  UNL1        0.0002
      5 C          61.8253   94.2850   -2.5263 C.3     1  UNL1        0.0298
      6 C          63.2905   94.0095   -2.3611 C.3     1  UNL1        0.1418
      7 O          64.2491   94.3660   -3.4584 O.3     1  UNL1       -0.3537
      8 C          63.4952   93.3815   -1.0143 C.3     1  UNL1        0.1373
      9 O          64.8080   92.9431   -0.4362 O.3     1  UNL1       -0.3820
     10 C          62.1565   93.2689   -0.3472 C.3     1  UNL1        0.0272
     11 C          63.2949   92.7450    0.4771 C.3     1  UNL1        0.0025
     12 C          61.7438   92.7301    0.9905 C.3     1  UNL1        0.0023
     13 C          62.7758   92.1718    1.9250 C.3     1  UNL1        0.0001
     14 C          62.3632   91.6330    3.2627 C.3     1  UNL1        0.0001
     15 C          60.9186   91.6525    3.6659 C.3     1  UNL1        0.0023
     16 C          60.5059   91.1137    5.0036 C.3     1  UNL1        0.0251
     17 C          60.6072   90.4933    6.3655 C.3     1  UNL1        0.0024
     18 C          61.9858   90.8787    5.0733 C.3     1  UNL1        0.0024
     19 C          59.0612   91.1332    5.4068 C.3     1  UNL1        0.1177
     20 C          58.0292   91.6916    4.4724 C.3     1  UNL1        0.0296
     21 C          58.4419   92.2304    3.1347 C.3     1  UNL1        0.0025
     22 C          59.8865   92.2109    2.7315 C.3     1  UNL1        0.0002
     23 C          58.8545   92.7692    1.7970 C.3     1  UNL1        0.0000
     24 C          60.2991   92.7497    1.3938 C.3     1  UNL1        0.0001
     25 C          59.2671   93.3080    0.4593 C.3     1  UNL1        0.0000
     26 C          59.6798   93.8468   -0.8784 C.3     1  UNL1        0.0002
     27 C          61.1244   93.8273   -1.2816 C.3     1  UNL1        0.0046
     28 C          60.2101   94.4139   -2.3160 C.3     1  UNL1        0.0002
     29 H          64.6636   92.5696    0.4473 H       1  UNL1        0.2104
     30 C          64.7010   95.3546   -5.8182 C.3     1  UNL1        0.1664
     31 C          65.9601   96.1051   -5.4997 C.3     1  UNL1        0.1156
     32 C          65.2398   96.8546   -4.4183 C.3     1  UNL1        0.0319
     33 C          66.6804   95.3555   -6.5811 C.3     1  UNL1        0.0319
     34 O          67.2192   96.8556   -5.1812 O.3     1  UNL1       -0.3843
     35 H          67.0514   97.4743   -4.4533 H       1  UNL1        0.2103
     36 O          64.4004   94.9606   -7.2340 O.3     1  UNL1       -0.3514
     37 C          64.5084   92.4279   -6.6650 C.3     1  UNL1        0.0346
     38 C          64.0430   93.5401   -7.5574 C.3     1  UNL1        0.1423
     39 O          58.6486   90.5944    6.7445 O.3     1  UNL1       -0.3320
     40 C          59.2545   89.3228    7.2602 C.3     1  UNL1        0.2518
     41 C          60.1426   89.3514    8.4688 C.3     1  UNL1        0.1343
     42 N          60.7485   88.0798    8.9845 N.3     1  UNL1       -0.2651
     43 C          60.4662   86.7797    8.2917 C.3     1  UNL1        0.1048
     44 C          59.5781   86.7511    7.0833 C.3     1  UNL1        0.1621
     45 O          58.9722   88.0227    6.5675 O.3     1  UNL1       -0.3280
     46 C          61.6366   88.1084   10.1929 C.3     1  UNL1        0.0898
     47 C          62.3000   89.1875   10.9965 C.3     1  UNL1        0.0897
     48 N          62.8926   88.1489   11.9021 N.3     1  UNL1       -0.2682
     49 C          62.2291   87.0698   11.0985 C.3     1  UNL1        0.0897
     50 C          63.7807   88.1775   13.1105 C.3     1  UNL1        0.1046
     51 C          63.6913   87.0836   14.1330 C.3     1  UNL1        0.1595
     52 O          64.2669   85.7306   13.8361 O.3     1  UNL1       -0.3496
     53 C          63.3698   84.5297   13.7808 C.3     1  UNL1        0.1742
@<TRIPOS>BOND
     1    37    38    1
     2    38    36    1
     3    30    36    1
     4    30     1    1
     5     1     2    1
     6     2     3    1
     7     3     4    1
     8     5     3    1
     9     5     6    1
    10     6     7    1
    11     6     8    1
    12     8     9    1
    13     8    10    1
    14    10    11    1
    15    10    12    1
    16    12    13    1
    17    13    14    1
    18    15    14    1
    19    15    16    1
    20    16    17    1
    21    16    18    1
    22    16    19    1
    23    19    39    1
    24    40    39    1
    25    40    41    1
    26    41    42    1
    27    42    46    1
    28    46    47    1
    29    47    48    1
    30    48    50    1
    31    50    51    1
    32    51    52    1
    33    52    53    1
    34    48    49    1
    35    42    43    1
    36    43    44    1
    37    44    45    1
    38    19    20    1
    39    20    21    1
    40    22    21    1
    41    22    23    1
    42    24    23    1
    43    24    25    1
    44    25    26    1
    45    26    27    1
    46    27    28    1
    47    30    31    1
    48    31    32    1
    49    31    33    1
    50    31    34    1
    51     7     1    1
    52    27    10    1
    53    27     5    1
    54    24    12    1
    55    22    15    1
    56    45    40    1
    57    24    22    1
    58    49    46    1
    59     9    29    1
    60    34    35    1
