@<TRIPOS>MOLECULE
*****
 22 24 0 0 0
SMALL
GASTEIGER

@<TRIPOS>ATOM
      1 C          62.5013   85.0882   10.8650 C.3     1  UNL1        0.0629
      2 C          63.1850   84.2045    9.8643 C.3     1  UNL1        0.0247
      3 C          64.2424   83.2403   10.3140 C.3     1  UNL1        0.0690
      4 N          64.6161   83.1599   11.7644 N.3     1  UNL1       -0.2985
      5 C          63.9325   84.0437   12.7652 C.3     1  UNL1        0.0548
      6 C          62.8751   85.0078   12.3155 C.3     1  UNL1        0.0234
      7 H          65.6135   83.3651   11.8233 H       1  UNL1        0.1232
      8 O          59.0752   87.7326    7.8400 O.2     1  UNL1       -0.2645
      9 C          59.8691   87.2679    9.0249 C.ar    1  UNL1        0.2884
     10 C          60.9072   86.1852    9.0209 C.ar    1  UNL1        0.0986
     11 C          61.4439   86.0525   10.4154 C.ar    1  UNL1        0.1547
     12 O          60.7375   87.0532   11.2811 O.2     1  UNL1       -0.3802
     13 N          59.7642   87.8044   10.4218 N.ar    1  UNL1       -0.1839
     14 H          59.1623   88.5233   10.7219 H       1  UNL1        0.2107
     15 C          64.3063   83.9633   14.2156 C.3     1  UNL1        0.0204
     16 C          65.0945   85.0709   14.8495 C.3     1  UNL1        0.0277
     17 C          64.3843   86.2434   15.4587 C.ar    1  UNL1       -0.0221
     18 C          63.5552   86.0584   16.6950 C.ar    1  UNL1       -0.0043
     19 C          62.8450   87.2308   17.3042 C.ar    1  UNL1       -0.0003
     20 C          62.9639   88.5882   16.6769 C.ar    1  UNL1       -0.0000
     21 C          63.7929   88.7732   15.4406 C.ar    1  UNL1       -0.0003
     22 C          64.5031   87.6007   14.8315 C.ar    1  UNL1       -0.0043
@<TRIPOS>BOND
     1     8     9    2
     2     9    10   ar
     3    10    11   ar
     4     1    11    1
     5     1     2    1
     6     2     3    1
     7     3     4    1
     8     4     5    1
     9     5    15    1
    10    15    16    1
    11    16    17    1
    12    17    18   ar
    13    18    19   ar
    14    19    20   ar
    15    20    21   ar
    16    21    22   ar
    17     5     6    1
    18    11    12   ar
    19    12    13   ar
    20    13     9   ar
    21     6     1    1
    22    22    17   ar
    23     4     7    1
    24    13    14    1
@<TRIPOS>MOLECULE
*****
 22 24 0 0 0
SMALL
GASTEIGER

@<TRIPOS>ATOM
      1 C          64.1553   89.2140   14.8586 C.3     1  UNL1        0.0629
      2 C          63.4059   89.4670   16.1331 C.3     1  UNL1        0.0247
      3 C          62.9548   88.3137   16.9794 C.3     1  UNL1        0.0690
      4 N          63.2532   86.9074   16.5514 N.3     1  UNL1       -0.2985
      5 C          64.0026   86.6544   15.2769 C.3     1  UNL1        0.0548
      6 C          64.4537   87.8077   14.4306 C.3     1  UNL1        0.0234
      7 H          62.3563   86.4292   16.4654 H       1  UNL1        0.1232
      8 O          66.9308   93.3156   13.0271 O.2     1  UNL1       -0.2645
      9 C          65.8822   92.2526   13.1703 C.ar    1  UNL1        0.2884
     10 C          65.8125   91.2241   14.2600 C.ar    1  UNL1        0.0986
     11 C          64.6065   90.3673   14.0122 C.ar    1  UNL1        0.1547
     12 O          63.9308   90.8663   12.7694 O.2     1  UNL1       -0.3802
     13 N          64.7192   92.0314   12.2491 N.ar    1  UNL1       -0.1839
     14 H          64.5101   92.5585   11.4443 H       1  UNL1        0.2107
     15 C          64.3010   85.2480   14.8489 C.3     1  UNL1        0.0204
     16 C          63.2678   84.4554   14.1045 C.3     1  UNL1        0.0277
     17 C          63.3192   84.3748   12.6076 C.ar    1  UNL1       -0.0221
     18 C          62.5107   85.3270   11.7770 C.ar    1  UNL1       -0.0043
     19 C          62.5621   85.2464   10.2801 C.ar    1  UNL1       -0.0003
     20 C          63.4220   84.2137    9.6137 C.ar    1  UNL1       -0.0000
     21 C          64.2305   83.2616   10.4442 C.ar    1  UNL1       -0.0003
     22 C          64.1791   83.3422   11.9412 C.ar    1  UNL1       -0.0043
@<TRIPOS>BOND
     1     8     9    2
     2     9    10   ar
     3    10    11   ar
     4     1    11    1
     5     1     2    1
     6     2     3    1
     7     3     4    1
     8     4     5    1
     9     5    15    1
    10    15    16    1
    11    16    17    1
    12    17    18   ar
    13    18    19   ar
    14    19    20   ar
    15    20    21   ar
    16    21    22   ar
    17     5     6    1
    18    11    12   ar
    19    12    13   ar
    20    13     9   ar
    21     6     1    1
    22    22    17   ar
    23     4     7    1
    24    13    14    1
@<TRIPOS>MOLECULE
*****
 22 24 0 0 0
SMALL
GASTEIGER

@<TRIPOS>ATOM
      1 C          65.2896   91.3036   13.9088 C.3     1  UNL1        0.0629
      2 C          64.4902   90.6242   14.9809 C.3     1  UNL1        0.0247
      3 C          63.1565   90.0208   14.6533 C.3     1  UNL1        0.0690
      4 N          62.6223   90.0969   13.2537 N.3     1  UNL1       -0.2985
      5 C          63.4218   90.7763   12.1817 C.3     1  UNL1        0.0548
      6 C          64.7554   91.3796   12.5093 C.3     1  UNL1        0.0234
      7 H          61.7272   90.5830   13.3062 H       1  UNL1        0.1232
      8 O          69.0643   94.2046   16.1928 O.2     1  UNL1       -0.2645
      9 C          68.3583   93.2405   15.2863 C.ar    1  UNL1        0.2884
     10 C          66.8939   92.9169   15.3120 C.ar    1  UNL1        0.0986
     11 C          66.6233   91.9070   14.2364 C.ar    1  UNL1        0.1547
     12 O          67.9205   91.6064   13.5458 O.2     1  UNL1       -0.3802
     13 N          68.9928   92.4305   14.1947 N.ar    1  UNL1       -0.1839
     14 H          69.9458   92.4385   13.9475 H       1  UNL1        0.2107
     15 C          62.8876   90.8524   10.7821 C.3     1  UNL1        0.0204
     16 C          61.4877   90.4009   10.4881 C.3     1  UNL1        0.0277
     17 C          61.2521   89.0959    9.7870 C.ar    1  UNL1       -0.0221
     18 C          62.1910   87.9467   10.0061 C.ar    1  UNL1       -0.0043
     19 C          61.9554   86.6417    9.3051 C.ar    1  UNL1       -0.0003
     20 C          60.7810   86.4859    8.3850 C.ar    1  UNL1       -0.0000
     21 C          59.8422   87.6351    8.1660 C.ar    1  UNL1       -0.0003
     22 C          60.0778   88.9401    8.8670 C.ar    1  UNL1       -0.0043
@<TRIPOS>BOND
     1     8     9    2
     2     9    10   ar
     3    10    11   ar
     4     1    11    1
     5     1     2    1
     6     2     3    1
     7     3     4    1
     8     4     5    1
     9     5    15    1
    10    15    16    1
    11    16    17    1
    12    17    18   ar
    13    18    19   ar
    14    19    20   ar
    15    20    21   ar
    16    21    22   ar
    17     5     6    1
    18    11    12   ar
    19    12    13   ar
    20    13     9   ar
    21     6     1    1
    22    22    17   ar
    23     4     7    1
    24    13    14    1
@<TRIPOS>MOLECULE
*****
 22 24 0 0 0
SMALL
GASTEIGER

@<TRIPOS>ATOM
      1 C          64.1684   89.2896   14.8906 C.3     1  UNL1        0.0629
      2 C          63.4026   89.5792   16.1474 C.3     1  UNL1        0.0247
      3 C          62.9305   88.4503   17.0149 C.3     1  UNL1        0.0690
      4 N          63.2241   87.0318   16.6256 N.3     1  UNL1       -0.2985
      5 C          63.9899   86.7421   15.3688 C.3     1  UNL1        0.0548
      6 C          64.4620   87.8710   14.5013 C.3     1  UNL1        0.0234
      7 H          62.3249   86.5582   16.5382 H       1  UNL1        0.1232
      8 O          66.9784   93.3506   13.0217 O.2     1  UNL1       -0.2645
      9 C          65.9322   92.2852   13.1640 C.ar    1  UNL1        0.2884
     10 C          65.8323   91.2915   14.2832 C.ar    1  UNL1        0.0986
     11 C          64.6406   90.4185   14.0230 C.ar    1  UNL1        0.1547
     12 O          64.0040   90.8726   12.7430 O.2     1  UNL1       -0.3802
     13 N          64.8022   92.0262   12.2120 N.ar    1  UNL1       -0.1839
     14 H          64.6170   92.5258   11.3842 H       1  UNL1        0.2107
     15 C          64.2835   85.3236   14.9795 C.3     1  UNL1        0.0204
     16 C          63.9508   84.8405   13.5990 C.3     1  UNL1        0.0277
     17 C          63.3506   83.4796   13.4049 C.ar    1  UNL1       -0.0221
     18 C          62.5264   82.8610   14.4949 C.ar    1  UNL1       -0.0043
     19 C          61.9263   81.5001   14.3009 C.ar    1  UNL1       -0.0003
     20 C          62.1503   80.7577   13.0168 C.ar    1  UNL1       -0.0000
     21 C          62.9745   81.3763   11.9269 C.ar    1  UNL1       -0.0003
     22 C          63.5747   82.7372   12.1209 C.ar    1  UNL1       -0.0043
@<TRIPOS>BOND
     1     8     9    2
     2     9    10   ar
     3    10    11   ar
     4     1    11    1
     5     1     2    1
     6     2     3    1
     7     3     4    1
     8     4     5    1
     9     5    15    1
    10    15    16    1
    11    16    17    1
    12    17    18   ar
    13    18    19   ar
    14    19    20   ar
    15    20    21   ar
    16    21    22   ar
    17     5     6    1
    18    11    12   ar
    19    12    13   ar
    20    13     9   ar
    21     6     1    1
    22    22    17   ar
    23     4     7    1
    24    13    14    1
@<TRIPOS>MOLECULE
*****
 22 24 0 0 0
SMALL
GASTEIGER

@<TRIPOS>ATOM
      1 C          64.0901   89.5948   14.2386 C.3     1  UNL1        0.0629
      2 C          65.0933   90.6421   14.6217 C.3     1  UNL1        0.0247
      3 C          65.4138   91.7570   13.6708 C.3     1  UNL1        0.0690
      4 N          64.7311   91.8246   12.3369 N.3     1  UNL1       -0.2985
      5 C          63.7279   90.7773   11.9538 C.3     1  UNL1        0.0548
      6 C          63.4075   89.6624   12.9047 C.3     1  UNL1        0.0234
      7 H          65.4651   91.8022   11.6290 H       1  UNL1        0.1232
      8 O          62.4895   86.9490   18.5187 O.2     1  UNL1       -0.2645
      9 C          63.0339   87.2637   17.1568 C.ar    1  UNL1        0.2884
     10 C          63.1888   88.6328   16.5640 C.ar    1  UNL1        0.0986
     11 C          63.7696   88.4798   15.1895 C.ar    1  UNL1        0.1547
     12 O          63.9736   87.0161   14.9328 O.2     1  UNL1       -0.3802
     13 N          63.5189   86.2644   16.1486 N.ar    1  UNL1       -0.1839
     14 H          63.5358   85.2869   16.2646 H       1  UNL1        0.2107
     15 C          63.0452   90.8450   10.6199 C.3     1  UNL1        0.0204
     16 C          61.6203   90.3968   10.4831 C.3     1  UNL1        0.0277
     17 C          61.3020   89.1168    9.7688 C.ar    1  UNL1       -0.0221
     18 C          60.1018   89.0365    8.8726 C.ar    1  UNL1       -0.0043
     19 C          59.7834   87.7565    8.1584 C.ar    1  UNL1       -0.0003
     20 C          60.6653   86.5567    8.3403 C.ar    1  UNL1       -0.0000
     21 C          61.8654   86.6371    9.2365 C.ar    1  UNL1       -0.0003
     22 C          62.1838   87.9171    9.9507 C.ar    1  UNL1       -0.0043
@<TRIPOS>BOND
     1     8     9    2
     2     9    10   ar
     3    10    11   ar
     4     1    11    1
     5     1     2    1
     6     2     3    1
     7     3     4    1
     8     4     5    1
     9     5    15    1
    10    15    16    1
    11    16    17    1
    12    17    18   ar
    13    18    19   ar
    14    19    20   ar
    15    20    21   ar
    16    21    22   ar
    17     5     6    1
    18    11    12   ar
    19    12    13   ar
    20    13     9   ar
    21     6     1    1
    22    22    17   ar
    23     4     7    1
    24    13    14    1
@<TRIPOS>MOLECULE
*****
 22 24 0 0 0
SMALL
GASTEIGER

@<TRIPOS>ATOM
      1 C          64.3158   91.4461   12.1115 C.3     1  UNL1        0.0629
      2 C          64.1248   90.9660   13.5196 C.3     1  UNL1        0.0247
      3 C          63.1435   89.8698   13.8116 C.3     1  UNL1        0.0690
      4 N          62.3532   89.2537   12.6955 N.3     1  UNL1       -0.2985
      5 C          62.5442   89.7338   11.2873 C.3     1  UNL1        0.0548
      6 C          63.5254   90.8300   10.9953 C.3     1  UNL1        0.0234
      7 H          61.3680   89.3901   12.9220 H       1  UNL1        0.1232
      8 O          67.8512   94.4958    9.6453 O.2     1  UNL1       -0.2645
      9 C          66.9221   93.9441   10.6858 C.ar    1  UNL1        0.2884
     10 C          66.0599   92.7253   10.5408 C.ar    1  UNL1        0.0986
     11 C          65.2971   92.5424   11.8194 C.ar    1  UNL1        0.1547
     12 O          65.6879   93.6481   12.7546 O.2     1  UNL1       -0.3802
     13 N          66.6922   94.5145   12.0540 N.ar    1  UNL1       -0.1839
     14 H          67.1246   95.3166   12.4267 H       1  UNL1        0.2107
     15 C          61.7538   89.1177   10.1711 C.3     1  UNL1        0.0204
     16 C          61.0918   87.7860   10.3670 C.3     1  UNL1        0.0277
     17 C          61.8791   86.5226   10.1827 C.ar    1  UNL1       -0.0221
     18 C          62.4298   86.1724    8.8321 C.ar    1  UNL1       -0.0043
     19 C          63.2171   84.9090    8.6478 C.ar    1  UNL1       -0.0003
     20 C          63.4538   83.9959    9.8141 C.ar    1  UNL1       -0.0000
     21 C          62.9031   84.3461   11.1647 C.ar    1  UNL1       -0.0003
     22 C          62.1158   85.6095   11.3490 C.ar    1  UNL1       -0.0043
@<TRIPOS>BOND
     1     8     9    2
     2     9    10   ar
     3    10    11   ar
     4     1    11    1
     5     1     2    1
     6     2     3    1
     7     3     4    1
     8     4     5    1
     9     5    15    1
    10    15    16    1
    11    16    17    1
    12    17    18   ar
    13    18    19   ar
    14    19    20   ar
    15    20    21   ar
    16    21    22   ar
    17     5     6    1
    18    11    12   ar
    19    12    13   ar
    20    13     9   ar
    21     6     1    1
    22    22    17   ar
    23     4     7    1
    24    13    14    1
@<TRIPOS>MOLECULE
*****
 22 24 0 0 0
SMALL
GASTEIGER

@<TRIPOS>ATOM
      1 C          65.5494   92.2632   11.8815 C.3     1  UNL1        0.0629
      2 C          65.8871   92.0510   13.3274 C.3     1  UNL1        0.0247
      3 C          64.9787   91.2342   14.1977 C.3     1  UNL1        0.0690
      4 N          63.7324   90.6296   13.6221 N.3     1  UNL1       -0.2985
      5 C          63.3947   90.8418   12.1761 C.3     1  UNL1        0.0548
      6 C          64.3032   91.6586   11.3058 C.3     1  UNL1        0.0234
      7 H          62.9499   90.9960   14.1641 H       1  UNL1        0.1232
      8 O          67.4675   96.1796    8.9043 O.2     1  UNL1       -0.2645
      9 C          67.3395   94.8802    9.6427 C.ar    1  UNL1        0.2884
     10 C          66.1565   94.4391   10.4524 C.ar    1  UNL1        0.0986
     11 C          66.4579   93.0800   11.0111 C.ar    1  UNL1        0.1547
     12 O          67.8273   92.6812   10.5466 O.2     1  UNL1       -0.3802
     13 N          68.3722   93.7938    9.7009 N.ar    1  UNL1       -0.1839
     14 H          69.2529   93.8083    9.2612 H       1  UNL1        0.2107
     15 C          62.1485   90.2372   11.6004 C.3     1  UNL1        0.0204
     16 C          61.9929   90.1126   10.1138 C.3     1  UNL1        0.0277
     17 C          61.3734   88.8798    9.5251 C.ar    1  UNL1       -0.0221
     18 C          60.1403   88.9913    8.6782 C.ar    1  UNL1       -0.0043
     19 C          59.5208   87.7586    8.0896 C.ar    1  UNL1       -0.0003
     20 C          60.1343   86.4143    8.3479 C.ar    1  UNL1       -0.0000
     21 C          61.3673   86.3029    9.1948 C.ar    1  UNL1       -0.0003
     22 C          61.9869   87.5357    9.7834 C.ar    1  UNL1       -0.0043
@<TRIPOS>BOND
     1     8     9    2
     2     9    10   ar
     3    10    11   ar
     4     1    11    1
     5     1     2    1
     6     2     3    1
     7     3     4    1
     8     4     5    1
     9     5    15    1
    10    15    16    1
    11    16    17    1
    12    17    18   ar
    13    18    19   ar
    14    19    20   ar
    15    20    21   ar
    16    21    22   ar
    17     5     6    1
    18    11    12   ar
    19    12    13   ar
    20    13     9   ar
    21     6     1    1
    22    22    17   ar
    23     4     7    1
    24    13    14    1
@<TRIPOS>MOLECULE
*****
 22 24 0 0 0
SMALL
GASTEIGER

@<TRIPOS>ATOM
      1 C          65.0943   91.8565   12.9984 C.3     1  UNL1        0.0629
      2 C          65.4040   92.5945   11.7298 C.3     1  UNL1        0.0247
      3 C          64.6235   92.3025   10.4827 C.3     1  UNL1        0.0690
      4 N          63.5333   91.2724   10.5041 N.3     1  UNL1       -0.2985
      5 C          63.2236   90.5344   11.7727 C.3     1  UNL1        0.0548
      6 C          64.0041   90.8264   13.0199 C.3     1  UNL1        0.0234
      7 H          63.7787   90.5695    9.8069 H       1  UNL1        0.1232
      8 O          69.0837   92.3950   16.4155 O.2     1  UNL1       -0.2645
      9 C          67.7086   92.3960   15.8163 C.ar    1  UNL1        0.2884
     10 C          67.3572   91.9936   14.4147 C.ar    1  UNL1        0.0986
     11 C          65.8748   92.1485   14.2457 C.ar    1  UNL1        0.1547
     12 O          65.3100   92.6467   15.5429 O.2     1  UNL1       -0.3802
     13 N          66.4433   92.7997   16.5136 N.ar    1  UNL1       -0.1839
     14 H          66.3696   93.1105   17.4448 H       1  UNL1        0.2107
     15 C          62.1334   89.5043   11.7941 C.3     1  UNL1        0.0204
     16 C          62.2895   88.2308   11.0172 C.3     1  UNL1        0.0277
     17 C          61.3578   87.9257    9.8820 C.ar    1  UNL1       -0.0221
     18 C          60.6166   89.0377    9.2006 C.ar    1  UNL1       -0.0043
     19 C          59.6849   88.7327    8.0653 C.ar    1  UNL1       -0.0003
     20 C          59.4943   87.3157    7.6114 C.ar    1  UNL1       -0.0000
     21 C          60.2355   86.2038    8.2929 C.ar    1  UNL1       -0.0003
     22 C          61.1673   86.5088    9.4281 C.ar    1  UNL1       -0.0043
@<TRIPOS>BOND
     1     8     9    2
     2     9    10   ar
     3    10    11   ar
     4     1    11    1
     5     1     2    1
     6     2     3    1
     7     3     4    1
     8     4     5    1
     9     5    15    1
    10    15    16    1
    11    16    17    1
    12    17    18   ar
    13    18    19   ar
    14    19    20   ar
    15    20    21   ar
    16    21    22   ar
    17     5     6    1
    18    11    12   ar
    19    12    13   ar
    20    13     9   ar
    21     6     1    1
    22    22    17   ar
    23     4     7    1
    24    13    14    1
@<TRIPOS>MOLECULE
*****
 22 24 0 0 0
SMALL
GASTEIGER

@<TRIPOS>ATOM
      1 C          61.6546   86.5603    9.9154 C.3     1  UNL1        0.0629
      2 C          60.5947   86.4165    8.8638 C.3     1  UNL1        0.0247
      3 C          59.8709   87.6289    8.3577 C.3     1  UNL1        0.0690
      4 N          60.2070   88.9851    8.9033 N.3     1  UNL1       -0.2985
      5 C          61.2669   89.1289    9.9549 C.3     1  UNL1        0.0548
      6 C          61.9907   87.9165   10.4609 C.3     1  UNL1        0.0234
      7 H          59.3468   89.3651    9.2983 H       1  UNL1        0.1232
      8 O          64.8172   82.3392   10.1641 O.2     1  UNL1       -0.2645
      9 C          63.8321   83.4076   10.5358 C.ar    1  UNL1        0.2884
     10 C          63.3537   84.5147    9.6439 C.ar    1  UNL1        0.0986
     11 C          62.3784   85.3478   10.4215 C.ar    1  UNL1        0.1547
     12 O          62.2539   84.7556   11.7940 O.2     1  UNL1       -0.3802
     13 N          63.1524   83.5565   11.8647 N.ar    1  UNL1       -0.1839
     14 H          63.2745   82.9702   12.6460 H       1  UNL1        0.2107
     15 C          61.6030   90.4852   10.5005 C.3     1  UNL1        0.0204
     16 C          63.0252   90.9621   10.5008 C.3     1  UNL1        0.0277
     17 C          63.8125   90.9721   11.7775 C.ar    1  UNL1       -0.0221
     18 C          63.5375   89.9457   12.8364 C.ar    1  UNL1       -0.0043
     19 C          64.3249   89.9557   14.1131 C.ar    1  UNL1       -0.0003
     20 C          65.3873   90.9921   14.3309 C.ar    1  UNL1       -0.0000
     21 C          65.6622   92.0184   13.2721 C.ar    1  UNL1       -0.0003
     22 C          64.8749   92.0084   11.9954 C.ar    1  UNL1       -0.0043
@<TRIPOS>BOND
     1     8     9    2
     2     9    10   ar
     3    10    11   ar
     4     1    11    1
     5     1     2    1
     6     2     3    1
     7     3     4    1
     8     4     5    1
     9     5    15    1
    10    15    16    1
    11    16    17    1
    12    17    18   ar
    13    18    19   ar
    14    19    20   ar
    15    20    21   ar
    16    21    22   ar
    17     5     6    1
    18    11    12   ar
    19    12    13   ar
    20    13     9   ar
    21     6     1    1
    22    22    17   ar
    23     4     7    1
    24    13    14    1
