@<TRIPOS>MOLECULE
*****
 33 37 0 0 0
SMALL
GASTEIGER

@<TRIPOS>ATOM
      1 C          63.0315   83.7064   12.0207 C.ar    1  UNL1        0.0540
      2 C          62.4166   82.3425   11.9131 C.ar    1  UNL1        0.0152
      3 C          62.0129   81.6018   13.1534 C.ar    1  UNL1        0.0010
      4 C          62.2241   82.2251   14.5013 C.ar    1  UNL1       -0.0032
      5 C          62.8389   83.5890   14.6090 C.ar    1  UNL1       -0.0091
      6 C          63.2427   84.3296   13.3687 C.ar    1  UNL1       -0.0091
      7 C          63.8576   85.6936   13.4763 C.3     1  UNL1        0.0445
      8 C          64.0687   86.3169   14.8243 C.3     1  UNL1        0.0749
      9 N          63.6650   85.5761   16.0646 N.3     1  UNL1       -0.2934
     10 C          63.0501   84.2122   15.9569 C.3     1  UNL1        0.0954
     11 H          62.9908   86.1653   16.5531 H       1  UNL1        0.1236
     12 N          63.4352   84.4472   10.7804 N.pl3   1  UNL1       -0.2755
     13 H          64.3614   84.3887   10.4516 H       1  UNL1        0.1665
     14 C          59.4057   87.7662    7.8228 C.3     1  UNL1        0.0897
     15 N          60.4131   86.9364    8.5622 N.3     1  UNL1       -0.2690
     16 C          61.3464   86.0389    7.8050 C.3     1  UNL1        0.0915
     17 C          62.3538   85.2092    8.5444 C.3     1  UNL1        0.1091
     18 N          62.4279   85.2769   10.0410 N.3     1  UNL1       -0.2052
     19 C          61.4946   86.1745   10.7983 C.3     1  UNL1        0.1091
     20 C          60.4872   87.0042   10.0589 C.3     1  UNL1        0.0915
     21 C          64.6836   87.6808   14.9319 C.3     1  UNL1        0.0886
     22 N          63.8200   88.9030   14.8304 N.3     1  UNL1       -0.2667
     23 C          62.9724   89.3213   15.9952 C.3     1  UNL1        0.0899
     24 C          63.8039   89.7069   13.5641 C.3     1  UNL1        0.0978
     25 C          62.9359   89.2819   12.4169 C.3     1  UNL1        0.0224
     26 C          62.9198   90.0858   11.1507 C.3     1  UNL1        0.0065
     27 C          63.7717   91.3147   11.0315 C.3     1  UNL1        0.0277
     28 C          64.6397   91.7396   12.1786 C.ar    1  UNL1       -0.0073
     29 C          65.4917   92.9684   12.0595 C.ar    1  UNL1       -0.0015
     30 C          66.3597   93.3933   13.2067 C.ar    1  UNL1        0.0203
     31 C          66.3758   92.5894   14.4730 C.ar    1  UNL1        0.0985
     32 N          65.5239   91.3606   14.5921 N.ar    1  UNL1       -0.2471
     33 C          64.6558   90.9357   13.4450 C.ar    1  UNL1        0.0695
@<TRIPOS>BOND
     1    14    15    1
     2    15    16    1
     3    16    17    1
     4    17    18    1
     5    18    12    1
     6    12     1    1
     7     1     2   ar
     8     2     3   ar
     9     3     4   ar
    10     4     5   ar
    11     5     6   ar
    12     6     7    1
    13     7     8    1
    14     8    21    1
    15    21    22    1
    16    22    23    1
    17    24    22    1
    18    24    25    1
    19    25    26    1
    20    26    27    1
    21    27    28    1
    22    28    29   ar
    23    29    30   ar
    24    30    31   ar
    25    31    32   ar
    26    32    33   ar
    27     8     9    1
    28     9    10    1
    29    18    19    1
    30    19    20    1
    31    20    15    1
    32     6     1   ar
    33    33    24    1
    34    10     5    1
    35    33    28   ar
    36    12    13    1
    37     9    11    1
@<TRIPOS>MOLECULE
*****
 33 37 0 0 0
SMALL
GASTEIGER

@<TRIPOS>ATOM
      1 C          64.7084   91.5009   15.0633 C.ar    1  UNL1        0.0540
      2 C          65.7389   92.0110   16.0264 C.ar    1  UNL1        0.0152
      3 C          66.9164   92.7909   15.5214 C.ar    1  UNL1        0.0010
      4 C          67.0634   93.0607   14.0532 C.ar    1  UNL1       -0.0032
      5 C          66.0329   92.5506   13.0900 C.ar    1  UNL1       -0.0091
      6 C          64.8553   91.7707   13.5951 C.ar    1  UNL1       -0.0091
      7 C          63.8247   91.2605   12.6319 C.3     1  UNL1        0.0445
      8 C          63.9717   91.5303   11.1637 C.3     1  UNL1        0.0749
      9 N          65.1493   92.3102   10.6587 N.3     1  UNL1       -0.2934
     10 C          66.1799   92.8204   11.6218 C.3     1  UNL1        0.0954
     11 H          64.7759   93.1234   10.1691 H       1  UNL1        0.1236
     12 N          63.5307   90.7210   15.5683 N.pl3   1  UNL1       -0.2755
     13 H          62.7128   91.1913   15.8496 H       1  UNL1        0.1665
     14 C          63.8051   84.7351   15.8741 C.3     1  UNL1        0.0897
     15 N          63.7365   86.2315   15.7977 N.3     1  UNL1       -0.2690
     16 C          63.0356   87.0062   16.8740 C.3     1  UNL1        0.0915
     17 C          62.9670   88.5026   16.7976 C.3     1  UNL1        0.1091
     18 N          63.5993   89.2245   15.6448 N.3     1  UNL1       -0.2052
     19 C          64.3003   88.4499   14.5683 C.3     1  UNL1        0.1091
     20 C          64.3689   86.9534   14.6448 C.3     1  UNL1        0.0915
     21 C          62.9412   91.0202   10.2006 C.3     1  UNL1        0.0886
     22 N          61.7642   90.2392   10.7055 N.3     1  UNL1       -0.2667
     23 C          60.6239   90.9489   11.3733 C.3     1  UNL1        0.0899
     24 C          61.7276   88.7486   10.5425 C.3     1  UNL1        0.0978
     25 C          62.5244   87.8735   11.4642 C.3     1  UNL1        0.0224
     26 C          62.4877   86.3828   11.3013 C.3     1  UNL1        0.0065
     27 C          61.6544   85.7672   10.2167 C.3     1  UNL1        0.0277
     28 C          60.8576   86.6422    9.2950 C.ar    1  UNL1       -0.0073
     29 C          60.0242   86.0265    8.2103 C.ar    1  UNL1       -0.0015
     30 C          59.2275   86.9016    7.2886 C.ar    1  UNL1        0.0203
     31 C          59.2641   88.3922    7.4515 C.ar    1  UNL1        0.0985
     32 N          60.0975   89.0079    8.5362 N.ar    1  UNL1       -0.2471
     33 C          60.8942   88.1329    9.4579 C.ar    1  UNL1        0.0695
@<TRIPOS>BOND
     1    14    15    1
     2    15    16    1
     3    16    17    1
     4    17    18    1
     5    18    12    1
     6    12     1    1
     7     1     2   ar
     8     2     3   ar
     9     3     4   ar
    10     4     5   ar
    11     5     6   ar
    12     6     7    1
    13     7     8    1
    14     8    21    1
    15    21    22    1
    16    22    23    1
    17    24    22    1
    18    24    25    1
    19    25    26    1
    20    26    27    1
    21    27    28    1
    22    28    29   ar
    23    29    30   ar
    24    30    31   ar
    25    31    32   ar
    26    32    33   ar
    27     8     9    1
    28     9    10    1
    29    18    19    1
    30    19    20    1
    31    20    15    1
    32     6     1   ar
    33    33    24    1
    34    10     5    1
    35    33    28   ar
    36    12    13    1
    37     9    11    1
@<TRIPOS>MOLECULE
*****
 33 37 0 0 0
SMALL
GASTEIGER

@<TRIPOS>ATOM
      1 C          63.0746   83.4210   12.0941 C.ar    1  UNL1        0.0540
      2 C          62.3879   82.0907   12.0013 C.ar    1  UNL1        0.0152
      3 C          61.8893   81.4158   13.2446 C.ar    1  UNL1        0.0010
      4 C          62.0773   82.0712   14.5806 C.ar    1  UNL1       -0.0032
      5 C          62.7639   83.4015   14.6734 C.ar    1  UNL1       -0.0091
      6 C          63.2626   84.0764   13.4301 C.ar    1  UNL1       -0.0091
      7 C          63.9493   85.4068   13.5229 C.3     1  UNL1        0.0445
      8 C          64.1373   86.0623   14.8589 C.3     1  UNL1        0.0749
      9 N          63.6386   85.3873   16.1022 N.3     1  UNL1       -0.2934
     10 C          62.9519   84.0570   16.0095 C.3     1  UNL1        0.0954
     11 H          62.9787   86.0293   16.5413 H       1  UNL1        0.1236
     12 N          63.5733   84.0960   10.8507 N.pl3   1  UNL1       -0.2755
     13 H          64.5204   84.0168   10.5937 H       1  UNL1        0.1665
     14 C          59.7962   87.2783    7.4439 C.3     1  UNL1        0.0897
     15 N          60.7405   86.4827    8.2956 N.3     1  UNL1       -0.2690
     16 C          61.8420   85.6910    7.6556 C.3     1  UNL1        0.0915
     17 C          62.7863   84.8954    8.5073 C.3     1  UNL1        0.1091
     18 N          62.6290   84.8915    9.9990 N.3     1  UNL1       -0.2052
     19 C          61.5274   85.6833   10.6391 C.3     1  UNL1        0.1091
     20 C          60.5831   86.4789    9.7874 C.3     1  UNL1        0.0915
     21 C          64.8240   87.3926   14.9517 C.3     1  UNL1        0.0886
     22 N          64.0124   88.6506   15.0454 N.3     1  UNL1       -0.2667
     23 C          62.8681   88.7347   16.0116 C.3     1  UNL1        0.0899
     24 C          64.3451   89.8245   14.1729 C.3     1  UNL1        0.0978
     25 C          65.3656   90.8278   14.6225 C.3     1  UNL1        0.0224
     26 C          65.6983   92.0017   13.7501 C.3     1  UNL1        0.0065
     27 C          65.0106   92.1724   12.4280 C.3     1  UNL1        0.0277
     28 C          63.9902   91.1691   11.9783 C.ar    1  UNL1       -0.0073
     29 C          63.3025   91.3398   10.6562 C.ar    1  UNL1       -0.0015
     30 C          62.2820   90.3365   10.2066 C.ar    1  UNL1        0.0203
     31 C          61.9493   89.1626   11.0791 C.ar    1  UNL1        0.0985
     32 N          62.6370   88.9919   12.4012 N.ar    1  UNL1       -0.2471
     33 C          63.6574   89.9952   12.8508 C.ar    1  UNL1        0.0695
@<TRIPOS>BOND
     1    14    15    1
     2    15    16    1
     3    16    17    1
     4    17    18    1
     5    18    12    1
     6    12     1    1
     7     1     2   ar
     8     2     3   ar
     9     3     4   ar
    10     4     5   ar
    11     5     6   ar
    12     6     7    1
    13     7     8    1
    14     8    21    1
    15    21    22    1
    16    22    23    1
    17    24    22    1
    18    24    25    1
    19    25    26    1
    20    26    27    1
    21    27    28    1
    22    28    29   ar
    23    29    30   ar
    24    30    31   ar
    25    31    32   ar
    26    32    33   ar
    27     8     9    1
    28     9    10    1
    29    18    19    1
    30    19    20    1
    31    20    15    1
    32     6     1   ar
    33    33    24    1
    34    10     5    1
    35    33    28   ar
    36    12    13    1
    37     9    11    1
@<TRIPOS>MOLECULE
*****
 33 37 0 0 0
SMALL
GASTEIGER

@<TRIPOS>ATOM
      1 C          64.4913   91.0718   14.2001 C.ar    1  UNL1        0.0540
      2 C          65.8901   91.4827   14.5525 C.ar    1  UNL1        0.0152
      3 C          66.7865   92.0694   13.5026 C.ar    1  UNL1        0.0010
      4 C          66.2840   92.2451   12.1002 C.ar    1  UNL1       -0.0032
      5 C          64.8851   91.8342   11.7478 C.ar    1  UNL1       -0.0091
      6 C          63.9887   91.2475   12.7977 C.ar    1  UNL1       -0.0091
      7 C          62.5898   90.8365   12.4453 C.3     1  UNL1        0.0445
      8 C          62.0873   91.0123   11.0429 C.3     1  UNL1        0.0749
      9 N          62.9837   91.5990    9.9930 N.3     1  UNL1       -0.2934
     10 C          64.3826   92.0099   10.3454 C.3     1  UNL1        0.0954
     11 H          62.5136   92.4307    9.6358 H       1  UNL1        0.1236
     12 N          63.5948   90.4851   15.2500 N.pl3   1  UNL1       -0.2755
     13 H          62.9960   91.0696   15.7686 H       1  UNL1        0.1665
     14 C          63.6590   84.5760   16.2887 C.3     1  UNL1        0.0897
     15 N          63.6429   86.0533   16.0291 N.3     1  UNL1       -0.2690
     16 C          64.3060   86.6064   14.8026 C.3     1  UNL1        0.0915
     17 C          64.2900   88.0837   14.5429 C.3     1  UNL1        0.1091
     18 N          63.6109   89.0078   15.5097 N.3     1  UNL1       -0.2052
     19 C          62.9477   88.4547   16.7362 C.3     1  UNL1        0.1091
     20 C          62.9638   86.9774   16.9959 C.3     1  UNL1        0.0915
     21 C          60.6884   90.6013   10.6905 C.3     1  UNL1        0.0886
     22 N          60.2212   89.2057   10.9800 N.3     1  UNL1       -0.2667
     23 C          59.5361   88.8983   12.2786 C.3     1  UNL1        0.0899
     24 C          60.4392   88.1173    9.9711 C.3     1  UNL1        0.0978
     25 C          59.8045   88.2134    8.6153 C.3     1  UNL1        0.0224
     26 C          60.0225   87.1250    7.6064 C.3     1  UNL1        0.0065
     27 C          60.8751   85.9406    7.9531 C.3     1  UNL1        0.0277
     28 C          61.5098   85.8446    9.3088 C.ar    1  UNL1       -0.0073
     29 C          62.3624   84.6602    9.6555 C.ar    1  UNL1       -0.0015
     30 C          62.9971   84.5642   11.0113 C.ar    1  UNL1        0.0203
     31 C          62.7791   85.6525   12.0202 C.ar    1  UNL1        0.0985
     32 N          61.9265   86.8369   11.6735 N.ar    1  UNL1       -0.2471
     33 C          61.2918   86.9329   10.3178 C.ar    1  UNL1        0.0695
@<TRIPOS>BOND
     1    14    15    1
     2    15    16    1
     3    16    17    1
     4    17    18    1
     5    18    12    1
     6    12     1    1
     7     1     2   ar
     8     2     3   ar
     9     3     4   ar
    10     4     5   ar
    11     5     6   ar
    12     6     7    1
    13     7     8    1
    14     8    21    1
    15    21    22    1
    16    22    23    1
    17    24    22    1
    18    24    25    1
    19    25    26    1
    20    26    27    1
    21    27    28    1
    22    28    29   ar
    23    29    30   ar
    24    30    31   ar
    25    31    32   ar
    26    32    33   ar
    27     8     9    1
    28     9    10    1
    29    18    19    1
    30    19    20    1
    31    20    15    1
    32     6     1   ar
    33    33    24    1
    34    10     5    1
    35    33    28   ar
    36    12    13    1
    37     9    11    1
@<TRIPOS>MOLECULE
*****
 33 37 0 0 0
SMALL
GASTEIGER

@<TRIPOS>ATOM
      1 C          62.8488   87.7961   12.0556 C.ar    1  UNL1        0.0540
      2 C          61.9230   87.0056   11.1791 C.ar    1  UNL1        0.0152
      3 C          61.3274   87.6367    9.9556 C.ar    1  UNL1        0.0010
      4 C          61.6576   89.0581    9.6086 C.ar    1  UNL1       -0.0032
      5 C          62.5833   89.8486   10.4850 C.ar    1  UNL1       -0.0091
      6 C          63.1789   89.2175   11.7085 C.ar    1  UNL1       -0.0091
      7 C          64.1047   90.0080   12.5850 C.3     1  UNL1        0.0445
      8 C          64.4348   91.4294   12.2380 C.3     1  UNL1        0.0749
      9 N          63.8391   92.0605   11.0144 N.3     1  UNL1       -0.2934
     10 C          62.9134   91.2700   10.1379 C.3     1  UNL1        0.0954
     11 H          64.6185   92.3575   10.4272 H       1  UNL1        0.1236
     12 N          63.4444   87.1650   13.2791 N.pl3   1  UNL1       -0.2755
     13 H          63.8278   87.7308   13.9878 H       1  UNL1        0.1665
     14 C          63.4902   81.1929   13.8546 C.3     1  UNL1        0.0897
     15 N          63.4787   82.6859   13.7107 N.3     1  UNL1       -0.2690
     16 C          63.9019   83.5533   14.8590 C.3     1  UNL1        0.0915
     17 C          63.8905   85.0463   14.7151 C.3     1  UNL1        0.1091
     18 N          63.4559   85.6720   13.4230 N.3     1  UNL1       -0.2052
     19 C          63.0327   84.8046   12.2747 C.3     1  UNL1        0.1091
     20 C          63.0441   83.3116   12.4185 C.3     1  UNL1        0.0915
     21 C          65.3605   92.2199   13.1144 C.3     1  UNL1        0.0886
     22 N          66.8218   92.2970   12.7849 N.3     1  UNL1       -0.2667
     23 C          67.8446   91.9468   13.8248 C.3     1  UNL1        0.0899
     24 C          67.2604   92.7244   11.4157 C.3     1  UNL1        0.0978
     25 C          68.0263   91.7748   10.5429 C.3     1  UNL1        0.0224
     26 C          68.4648   92.2022    9.1736 C.3     1  UNL1        0.0065
     27 C          68.1375   93.5792    8.6770 C.3     1  UNL1        0.0277
     28 C          67.3716   94.5288    9.5497 C.ar    1  UNL1       -0.0073
     29 C          67.0443   95.9059    9.0530 C.ar    1  UNL1       -0.0015
     30 C          66.2784   96.8555    9.9258 C.ar    1  UNL1        0.0203
     31 C          65.8398   96.4281   11.2951 C.ar    1  UNL1        0.0985
     32 N          66.1672   95.0511   11.7917 N.ar    1  UNL1       -0.2471
     33 C          66.9330   94.1015   10.9190 C.ar    1  UNL1        0.0695
@<TRIPOS>BOND
     1    14    15    1
     2    15    16    1
     3    16    17    1
     4    17    18    1
     5    18    12    1
     6    12     1    1
     7     1     2   ar
     8     2     3   ar
     9     3     4   ar
    10     4     5   ar
    11     5     6   ar
    12     6     7    1
    13     7     8    1
    14     8    21    1
    15    21    22    1
    16    22    23    1
    17    24    22    1
    18    24    25    1
    19    25    26    1
    20    26    27    1
    21    27    28    1
    22    28    29   ar
    23    29    30   ar
    24    30    31   ar
    25    31    32   ar
    26    32    33   ar
    27     8     9    1
    28     9    10    1
    29    18    19    1
    30    19    20    1
    31    20    15    1
    32     6     1   ar
    33    33    24    1
    34    10     5    1
    35    33    28   ar
    36    12    13    1
    37     9    11    1
@<TRIPOS>MOLECULE
*****
 33 37 0 0 0
SMALL
GASTEIGER

@<TRIPOS>ATOM
      1 C          62.0904   86.0732    9.4019 C.ar    1  UNL1        0.0540
      2 C          61.5529   85.3629    8.1950 C.ar    1  UNL1        0.0152
      3 C          60.4143   85.9572    7.4203 C.ar    1  UNL1        0.0010
      4 C          59.8132   87.2618    7.8524 C.ar    1  UNL1       -0.0032
      5 C          60.3507   87.9721    9.0592 C.ar    1  UNL1       -0.0091
      6 C          61.4893   87.3778    9.8340 C.ar    1  UNL1       -0.0091
      7 C          62.0269   88.0881   11.0409 C.3     1  UNL1        0.0445
      8 C          61.4258   89.3927   11.4729 C.3     1  UNL1        0.0749
      9 N          60.2871   89.9870   10.6981 N.3     1  UNL1       -0.2934
     10 C          59.7496   89.2767    9.4913 C.3     1  UNL1        0.0954
     11 H          60.5928   90.9085   10.3855 H       1  UNL1        0.1236
     12 N          63.2291   85.4789   10.1767 N.pl3   1  UNL1       -0.2755
     13 H          64.1496   85.7879   10.0140 H       1  UNL1        0.1665
     14 C          62.1739   81.2187   14.2678 C.3     1  UNL1        0.0897
     15 N          62.4377   82.2837   13.2450 N.3     1  UNL1       -0.2690
     16 C          62.3760   83.7306   13.6358 C.3     1  UNL1        0.0915
     17 C          62.6398   84.7956   12.6130 C.3     1  UNL1        0.1091
     18 N          62.9653   84.4139   11.1995 N.3     1  UNL1       -0.2052
     19 C          63.0271   82.9669   10.8086 C.3     1  UNL1        0.1091
     20 C          62.7632   81.9019   11.8314 C.3     1  UNL1        0.0915
     21 C          61.9633   90.1030   12.6798 C.3     1  UNL1        0.0886
     22 N          63.4360   90.0892   12.9642 N.3     1  UNL1       -0.2667
     23 C          64.0410   88.9509   13.7313 C.3     1  UNL1        0.0899
     24 C          64.3037   91.2135   12.4815 C.3     1  UNL1        0.0978
     25 C          64.2921   91.6010   11.0324 C.3     1  UNL1        0.0224
     26 C          65.1598   92.7253   10.5498 C.3     1  UNL1        0.0065
     27 C          66.0391   93.4621   11.5161 C.3     1  UNL1        0.0277
     28 C          66.0507   93.0747   12.9651 C.ar    1  UNL1       -0.0073
     29 C          66.9300   93.8116   13.9315 C.ar    1  UNL1       -0.0015
     30 C          66.9416   93.4241   15.3806 C.ar    1  UNL1        0.0203
     31 C          66.0739   92.2998   15.8633 C.ar    1  UNL1        0.0985
     32 N          65.1946   91.5629   14.8969 N.ar    1  UNL1       -0.2471
     33 C          65.1830   91.9503   13.4479 C.ar    1  UNL1        0.0695
@<TRIPOS>BOND
     1    14    15    1
     2    15    16    1
     3    16    17    1
     4    17    18    1
     5    18    12    1
     6    12     1    1
     7     1     2   ar
     8     2     3   ar
     9     3     4   ar
    10     4     5   ar
    11     5     6   ar
    12     6     7    1
    13     7     8    1
    14     8    21    1
    15    21    22    1
    16    22    23    1
    17    24    22    1
    18    24    25    1
    19    25    26    1
    20    26    27    1
    21    27    28    1
    22    28    29   ar
    23    29    30   ar
    24    30    31   ar
    25    31    32   ar
    26    32    33   ar
    27     8     9    1
    28     9    10    1
    29    18    19    1
    30    19    20    1
    31    20    15    1
    32     6     1   ar
    33    33    24    1
    34    10     5    1
    35    33    28   ar
    36    12    13    1
    37     9    11    1
@<TRIPOS>MOLECULE
*****
 33 37 0 0 0
SMALL
GASTEIGER

@<TRIPOS>ATOM
      1 C          62.8449   87.3124   12.0915 C.ar    1  UNL1        0.0540
      2 C          62.0237   86.5391   11.1028 C.ar    1  UNL1        0.0152
      3 C          61.4646   87.2261    9.8922 C.ar    1  UNL1        0.0010
      4 C          61.7267   88.6862    9.6704 C.ar    1  UNL1       -0.0032
      5 C          62.5479   89.4595   10.6592 C.ar    1  UNL1       -0.0091
      6 C          63.1070   88.7725   11.8697 C.ar    1  UNL1       -0.0091
      7 C          63.9283   89.5458   12.8585 C.3     1  UNL1        0.0445
      8 C          64.1904   91.0060   12.6367 C.3     1  UNL1        0.0749
      9 N          63.6312   91.6929   11.4261 N.3     1  UNL1       -0.2934
     10 C          62.8100   90.9197   10.4374 C.3     1  UNL1        0.0954
     11 H          64.4245   92.0775   10.9131 H       1  UNL1        0.1236
     12 N          63.4041   86.6254   13.3021 N.pl3   1  UNL1       -0.2755
     13 H          63.8509   87.1515   14.0042 H       1  UNL1        0.1665
     14 C          62.9173   80.6719   13.8659 C.3     1  UNL1        0.0897
     15 N          63.0390   82.1602   13.7250 N.3     1  UNL1       -0.2690
     16 C          63.8038   82.7446   12.5745 C.3     1  UNL1        0.0915
     17 C          63.9255   84.2330   12.4336 C.3     1  UNL1        0.1091
     18 N          63.2824   85.1370   13.4431 N.3     1  UNL1       -0.2052
     19 C          62.5176   84.5527   14.5936 C.3     1  UNL1        0.1091
     20 C          62.3959   83.0643   14.7345 C.3     1  UNL1        0.0915
     21 C          65.0116   91.7792   13.6255 C.3     1  UNL1        0.0886
     22 N          66.3708   92.2832   13.2402 N.3     1  UNL1       -0.2667
     23 C          67.5991   91.6444   13.8175 C.3     1  UNL1        0.0899
     24 C          66.5018   93.4261   12.2775 C.3     1  UNL1        0.0978
     25 C          65.9580   94.7767   12.6383 C.3     1  UNL1        0.0224
     26 C          66.0890   95.9196   11.6757 C.3     1  UNL1        0.0065
     27 C          66.7638   95.7119   10.3523 C.3     1  UNL1        0.0277
     28 C          67.3077   94.3613    9.9915 C.ar    1  UNL1       -0.0073
     29 C          67.9825   94.1536    8.6680 C.ar    1  UNL1       -0.0015
     30 C          68.5264   92.8030    8.3073 C.ar    1  UNL1        0.0203
     31 C          68.3954   91.6602    9.2699 C.ar    1  UNL1        0.0985
     32 N          67.7205   91.8678   10.5933 N.ar    1  UNL1       -0.2471
     33 C          67.1767   93.2184   10.9541 C.ar    1  UNL1        0.0695
@<TRIPOS>BOND
     1    14    15    1
     2    15    16    1
     3    16    17    1
     4    17    18    1
     5    18    12    1
     6    12     1    1
     7     1     2   ar
     8     2     3   ar
     9     3     4   ar
    10     4     5   ar
    11     5     6   ar
    12     6     7    1
    13     7     8    1
    14     8    21    1
    15    21    22    1
    16    22    23    1
    17    24    22    1
    18    24    25    1
    19    25    26    1
    20    26    27    1
    21    27    28    1
    22    28    29   ar
    23    29    30   ar
    24    30    31   ar
    25    31    32   ar
    26    32    33   ar
    27     8     9    1
    28     9    10    1
    29    18    19    1
    30    19    20    1
    31    20    15    1
    32     6     1   ar
    33    33    24    1
    34    10     5    1
    35    33    28   ar
    36    12    13    1
    37     9    11    1
@<TRIPOS>MOLECULE
*****
 33 37 0 0 0
SMALL
GASTEIGER

@<TRIPOS>ATOM
      1 C          62.0952   85.9700    8.9395 C.ar    1  UNL1        0.0540
      2 C          61.6335   84.9581    7.9331 C.ar    1  UNL1        0.0152
      3 C          60.4713   85.2680    7.0369 C.ar    1  UNL1        0.0010
      4 C          59.7709   86.5899    7.1471 C.ar    1  UNL1       -0.0032
      5 C          60.2326   87.6017    8.1534 C.ar    1  UNL1       -0.0091
      6 C          61.3948   87.2918    9.0497 C.ar    1  UNL1       -0.0091
      7 C          61.8566   88.3037   10.0561 C.3     1  UNL1        0.0445
      8 C          61.1562   89.6256   10.1662 C.3     1  UNL1        0.0749
      9 N          59.9939   89.9355    9.2699 N.3     1  UNL1       -0.2934
     10 C          59.5322   88.9236    8.2636 C.3     1  UNL1        0.0954
     11 H          60.2399   90.7775    8.7494 H       1  UNL1        0.1236
     12 N          63.2574   85.6600    9.8358 N.pl3   1  UNL1       -0.2755
     13 H          64.0353   86.2630    9.8594 H       1  UNL1        0.1665
     14 C          63.1652   80.7457   13.2768 C.3     1  UNL1        0.0897
     15 N          63.1883   81.9742   12.4165 N.3     1  UNL1       -0.2690
     16 C          63.8198   81.9260   11.0568 C.3     1  UNL1        0.0915
     17 C          63.8428   83.1546   10.1966 C.3     1  UNL1        0.1091
     18 N          63.2344   84.4314   10.6960 N.3     1  UNL1       -0.2052
     19 C          62.6029   84.4797   12.0558 C.3     1  UNL1        0.1091
     20 C          62.5798   83.2511   12.9161 C.3     1  UNL1        0.0915
     21 C          61.6179   90.6375   11.1726 C.3     1  UNL1        0.0886
     22 N          63.0774   90.9616   11.2950 N.3     1  UNL1       -0.2667
     23 C          63.7851   91.6679   10.1767 C.3     1  UNL1        0.0899
     24 C          63.8291   90.5794   12.5354 C.3     1  UNL1        0.0978
     25 C          63.5345   89.2775   13.2198 C.3     1  UNL1        0.0224
     26 C          64.2861   88.8954   14.4603 C.3     1  UNL1        0.0065
     27 C          65.3325   89.8151   15.0165 C.3     1  UNL1        0.0277
     28 C          65.6271   91.1169   14.3322 C.ar    1  UNL1       -0.0073
     29 C          66.6734   92.0366   14.8884 C.ar    1  UNL1       -0.0015
     30 C          66.9680   93.3386   14.2040 C.ar    1  UNL1        0.0203
     31 C          66.2163   93.7207   12.9635 C.ar    1  UNL1        0.0985
     32 N          65.1700   92.8010   12.4073 N.ar    1  UNL1       -0.2471
     33 C          64.8754   91.4991   13.0916 C.ar    1  UNL1        0.0695
@<TRIPOS>BOND
     1    14    15    1
     2    15    16    1
     3    16    17    1
     4    17    18    1
     5    18    12    1
     6    12     1    1
     7     1     2   ar
     8     2     3   ar
     9     3     4   ar
    10     4     5   ar
    11     5     6   ar
    12     6     7    1
    13     7     8    1
    14     8    21    1
    15    21    22    1
    16    22    23    1
    17    24    22    1
    18    24    25    1
    19    25    26    1
    20    26    27    1
    21    27    28    1
    22    28    29   ar
    23    29    30   ar
    24    30    31   ar
    25    31    32   ar
    26    32    33   ar
    27     8     9    1
    28     9    10    1
    29    18    19    1
    30    19    20    1
    31    20    15    1
    32     6     1   ar
    33    33    24    1
    34    10     5    1
    35    33    28   ar
    36    12    13    1
    37     9    11    1
@<TRIPOS>MOLECULE
*****
 33 37 0 0 0
SMALL
GASTEIGER

@<TRIPOS>ATOM
      1 C          61.7771   86.3036    8.9937 C.ar    1  UNL1        0.0540
      2 C          60.7098   85.9805    7.9905 C.ar    1  UNL1        0.0152
      3 C          59.4692   86.8205    7.9185 C.ar    1  UNL1        0.0010
      4 C          59.2959   87.9837    8.8496 C.ar    1  UNL1       -0.0032
      5 C          60.3632   88.3068    9.8528 C.ar    1  UNL1       -0.0091
      6 C          61.6038   87.4668    9.9248 C.ar    1  UNL1       -0.0091
      7 C          62.6712   87.7899   10.9280 C.3     1  UNL1        0.0445
      8 C          62.4979   88.9531   11.8592 C.3     1  UNL1        0.0749
      9 N          61.2573   89.7931   11.7871 N.3     1  UNL1       -0.2934
     10 C          60.1900   89.4700   10.7839 C.3     1  UNL1        0.0954
     11 H          61.5594   90.7489   11.5981 H       1  UNL1        0.1236
     12 N          63.0178   85.4636    9.0658 N.pl3   1  UNL1       -0.2755
     13 H          63.7474   85.6067    8.4204 H       1  UNL1        0.1665
     14 C          63.5338   81.2311   13.2871 C.3     1  UNL1        0.0897
     15 N          63.4048   82.2892   12.2317 N.3     1  UNL1       -0.2690
     16 C          62.5688   83.5076   12.4895 C.3     1  UNL1        0.0915
     17 C          62.4398   84.5657   11.4342 C.3     1  UNL1        0.1091
     18 N          63.1468   84.4055   10.1211 N.3     1  UNL1       -0.2052
     19 C          63.9829   83.1870    9.8632 C.3     1  UNL1        0.1091
     20 C          64.1119   82.1289   10.9185 C.3     1  UNL1        0.0915
     21 C          63.5652   89.2762   12.8623 C.3     1  UNL1        0.0886
     22 N          64.1124   90.6699   12.9527 N.3     1  UNL1       -0.2667
     23 C          64.2275   91.5121   11.7167 C.3     1  UNL1        0.0899
     24 C          64.5445   91.2215   14.2790 C.3     1  UNL1        0.0978
     25 C          63.5719   91.2808   15.4194 C.3     1  UNL1        0.0224
     26 C          64.0039   91.8324   16.7457 C.3     1  UNL1        0.0065
     27 C          65.4086   92.3247   16.9316 C.3     1  UNL1        0.0277
     28 C          66.3812   92.2654   15.7912 C.ar    1  UNL1       -0.0073
     29 C          67.7859   92.7577   15.9771 C.ar    1  UNL1       -0.0015
     30 C          68.7585   92.6984   14.8366 C.ar    1  UNL1        0.0203
     31 C          68.3264   92.1468   13.5104 C.ar    1  UNL1        0.0985
     32 N          66.9217   91.6545   13.3245 N.ar    1  UNL1       -0.2471
     33 C          65.9491   91.7138   14.4649 C.ar    1  UNL1        0.0695
@<TRIPOS>BOND
     1    14    15    1
     2    15    16    1
     3    16    17    1
     4    17    18    1
     5    18    12    1
     6    12     1    1
     7     1     2   ar
     8     2     3   ar
     9     3     4   ar
    10     4     5   ar
    11     5     6   ar
    12     6     7    1
    13     7     8    1
    14     8    21    1
    15    21    22    1
    16    22    23    1
    17    24    22    1
    18    24    25    1
    19    25    26    1
    20    26    27    1
    21    27    28    1
    22    28    29   ar
    23    29    30   ar
    24    30    31   ar
    25    31    32   ar
    26    32    33   ar
    27     8     9    1
    28     9    10    1
    29    18    19    1
    30    19    20    1
    31    20    15    1
    32     6     1   ar
    33    33    24    1
    34    10     5    1
    35    33    28   ar
    36    12    13    1
    37     9    11    1
