@<TRIPOS>MOLECULE
*****
 29 33 0 0 0
SMALL
GASTEIGER

@<TRIPOS>ATOM
      1 C          60.4341   92.9068    3.0995 C.3     1  UNL1        0.0213
      2 C          60.6553   93.3063    1.6706 C.3     1  UNL1        0.0723
      3 C          59.3948   92.8783    0.9791 C.3     1  UNL1        0.0259
      4 C          58.5290   92.7396   -0.2379 C.3     1  UNL1        0.0472
      5 C          58.2560   92.9219   -1.7015 C.ar    1  UNL1        0.0568
      6 N          56.9250   92.2693   -1.4727 N.ar    1  UNL1       -0.2461
      7 C          55.9764   92.0782   -2.6189 C.ar    1  UNL1        0.1279
      8 C          56.3589   92.5397   -3.9939 C.ar    1  UNL1        0.1589
      9 F          55.4104   92.3487   -5.1401 F       1  UNL1       -0.2025
     10 C          57.6900   93.1923   -4.2227 C.ar    1  UNL1        0.0297
     11 C          58.6385   93.3834   -3.0766 C.ar    1  UNL1        0.0115
     12 C          59.5889   94.0184   -4.0480 C.3     1  UNL1        0.0979
     13 C          58.7754   93.9116   -5.3036 C.3     1  UNL1        0.0261
     14 C          59.5731   94.5086   -6.4249 C.3     1  UNL1        0.0235
     15 C          60.8796   94.9844   -5.8622 C.3     1  UNL1        0.0925
     16 N          60.8894   94.6815   -4.3931 N.pl3   1  UNL1       -0.2910
     17 C          62.2421   95.2206   -4.0331 C.ar    1  UNL1        0.1351
     18 C          64.0362   96.0801   -4.2451 C.ar    1  UNL1        0.0551
     19 C          65.2298   96.4486   -3.4149 C.ar    1  UNL1        0.1050
     20 N          65.2434   96.1473   -1.9455 N.ar    1  UNL1       -0.2104
     21 N          66.0026   96.2219   -0.6540 N.ar    1  UNL1       -0.1619
     22 C          65.1520   95.6108    0.4198 C.ar    1  UNL1        0.1281
     23 C          63.8670   95.1585   -0.2081 C.ar    1  UNL1        0.1099
     24 C          63.9234   95.4899   -1.6699 C.ar    1  UNL1        0.1710
     25 N          63.3370   95.5124   -3.0503 N.ar    1  UNL1       -0.2116
     26 C          63.1806   94.5938    1.0003 C.2     1  UNL1        0.2504
     27 O          64.1682   94.8106    2.1083 O.2     1  UNL1       -0.2700
     28 N          62.0215   93.9253    1.6783 N.am    1  UNL1       -0.3024
     29 H          62.3056   93.8576    2.6185 H       1  UNL1        0.1497
@<TRIPOS>BOND
     1     2     1    1
     2     2     3    1
     3     3     4    1
     4     4     5    1
     5     5     6   ar
     6     6     7   ar
     7     7     8   ar
     8     8     9    1
     9     8    10   ar
    10    10    11   ar
    11    11    12    1
    12    12    13    1
    13    13    14    1
    14    14    15    1
    15    15    16    1
    16    16    17    1
    17    17    18   ar
    18    18    19   ar
    19    19    20   ar
    20    20    21   ar
    21    21    22   ar
    22    22    23   ar
    23    23    24   ar
    24    24    25   ar
    25    23    26    1
    26    26    27    2
    27    26    28   am
    28    28     2    1
    29    11     5   ar
    30    16    12    1
    31    25    17   ar
    32    24    20   ar
    33    28    29    1
@<TRIPOS>MOLECULE
*****
 29 33 0 0 0
SMALL
GASTEIGER

@<TRIPOS>ATOM
      1 C          63.0284   86.6891   18.5419 C.3     1  UNL1        0.0213
      2 C          62.9935   86.6719   17.0424 C.3     1  UNL1        0.0723
      3 C          62.8714   85.2160   16.7029 C.3     1  UNL1        0.0259
      4 C          62.7606   84.0853   15.7234 C.3     1  UNL1        0.0472
      5 C          62.6863   83.5390   14.3284 C.ar    1  UNL1        0.0568
      6 N          62.5923   82.1701   14.9344 N.ar    1  UNL1       -0.2461
      7 C          62.4777   80.9643   14.0496 C.ar    1  UNL1        0.1279
      8 C          62.4571   81.1275   12.5586 C.ar    1  UNL1        0.1589
      9 F          62.3425   79.9218   11.6737 F       1  UNL1       -0.2025
     10 C          62.5511   82.4964   11.9526 C.ar    1  UNL1        0.0297
     11 C          62.6657   83.7021   12.8374 C.ar    1  UNL1        0.0115
     12 C          62.7035   84.5374   11.5921 C.3     1  UNL1        0.0979
     13 C          62.5953   83.4553   10.5589 C.3     1  UNL1        0.0261
     14 C          62.6158   84.1026    9.2059 C.3     1  UNL1        0.0235
     15 C          62.7367   85.5847    9.4029 C.3     1  UNL1        0.0925
     16 N          62.7909   85.8534   10.8776 N.pl3   1  UNL1       -0.2910
     17 C          62.9080   87.3487   10.8577 C.ar    1  UNL1        0.1351
     18 C          63.0383   89.2108   10.1378 C.ar    1  UNL1        0.0551
     19 C          63.1602   90.6204   10.6358 C.ar    1  UNL1        0.1050
     20 N          63.2147   90.8931   12.1098 N.ar    1  UNL1       -0.2104
     21 N          63.3201   91.9240   13.1943 N.ar    1  UNL1       -0.1619
     22 C          63.2937   91.2123   14.5144 C.ar    1  UNL1        0.1281
     23 C          63.1721   89.7416   14.2459 C.ar    1  UNL1        0.1099
     24 C          63.1233   89.5443   12.7598 C.ar    1  UNL1        0.1710
     25 N          63.0280   88.6807   11.5370 N.ar    1  UNL1       -0.2116
     26 C          63.1633   89.2274   15.6550 C.2     1  UNL1        0.2504
     27 O          63.2795   90.4678   16.4905 O.2     1  UNL1       -0.2700
     28 N          63.0988   88.1196   16.6643 N.am    1  UNL1       -0.3024
     29 H          63.1548   88.5857   17.5297 H       1  UNL1        0.1497
@<TRIPOS>BOND
     1     2     1    1
     2     2     3    1
     3     3     4    1
     4     4     5    1
     5     5     6   ar
     6     6     7   ar
     7     7     8   ar
     8     8     9    1
     9     8    10   ar
    10    10    11   ar
    11    11    12    1
    12    12    13    1
    13    13    14    1
    14    14    15    1
    15    15    16    1
    16    16    17    1
    17    17    18   ar
    18    18    19   ar
    19    19    20   ar
    20    20    21   ar
    21    21    22   ar
    22    22    23   ar
    23    23    24   ar
    24    24    25   ar
    25    23    26    1
    26    26    27    2
    27    26    28   am
    28    28     2    1
    29    11     5   ar
    30    16    12    1
    31    25    17   ar
    32    24    20   ar
    33    28    29    1
@<TRIPOS>MOLECULE
*****
 29 33 0 0 0
SMALL
GASTEIGER

@<TRIPOS>ATOM
      1 C          62.7481   95.7917   -6.7659 C.3     1  UNL1        0.0213
      2 C          62.0873   95.2993   -5.5125 C.3     1  UNL1        0.0723
      3 C          63.1244   95.5169   -4.4508 C.3     1  UNL1        0.0259
      4 C          63.6076   95.4490   -3.0323 C.3     1  UNL1        0.0472
      5 C          63.4264   95.1111   -1.5822 C.ar    1  UNL1        0.0568
      6 N          64.8177   95.6219   -1.3517 N.ar    1  UNL1       -0.2461
      7 C          65.4049   95.6024    0.0284 C.ar    1  UNL1        0.1279
      8 C          64.6007   95.0719    1.1782 C.ar    1  UNL1        0.1589
      9 F          65.1878   95.0523    2.5583 F       1  UNL1       -0.2025
     10 C          63.2093   94.5610    0.9477 C.ar    1  UNL1        0.0297
     11 C          62.6222   94.5806   -0.4325 C.ar    1  UNL1        0.0115
     12 C          61.3792   93.9791    0.1534 C.3     1  UNL1        0.0979
     13 C          61.7986   93.8824    1.5903 C.3     1  UNL1        0.0261
     14 C          60.6608   93.2879    2.3662 C.3     1  UNL1        0.0235
     15 C          59.5383   93.0171    1.4088 C.3     1  UNL1        0.0925
     16 N          59.9823   93.4444    0.0412 N.pl3   1  UNL1       -0.2910
     17 C          58.7513   93.0988   -0.7433 C.ar    1  UNL1        0.1351
     18 C          56.9057   92.4385   -1.1435 C.ar    1  UNL1        0.0551
     19 C          55.9779   92.2838   -2.3118 C.ar    1  UNL1        0.1050
     20 N          56.4182   92.7099   -3.6810 N.ar    1  UNL1       -0.2104
     21 N          56.0638   92.8352   -5.1331 N.ar    1  UNL1       -0.1619
     22 C          57.2394   93.4334   -5.8472 C.ar    1  UNL1        0.1281
     23 C          58.3204   93.6779   -4.8365 C.ar    1  UNL1        0.1099
     24 C          57.8130   93.2308   -3.4977 C.ar    1  UNL1        0.1710
     25 N          57.9685   93.0218   -2.0205 N.ar    1  UNL1       -0.2116
     26 C          59.3747   94.2609   -5.7303 C.2     1  UNL1        0.2504
     27 O          58.7370   94.2562   -7.0880 O.2     1  UNL1       -0.2700
     28 N          60.7342   94.8460   -5.9743 N.am    1  UNL1       -0.3024
     29 H          60.7427   95.0268   -6.9420 H       1  UNL1        0.1497
@<TRIPOS>BOND
     1     2     1    1
     2     2     3    1
     3     3     4    1
     4     4     5    1
     5     5     6   ar
     6     6     7   ar
     7     7     8   ar
     8     8     9    1
     9     8    10   ar
    10    10    11   ar
    11    11    12    1
    12    12    13    1
    13    13    14    1
    14    14    15    1
    15    15    16    1
    16    16    17    1
    17    17    18   ar
    18    18    19   ar
    19    19    20   ar
    20    20    21   ar
    21    21    22   ar
    22    22    23   ar
    23    23    24   ar
    24    24    25   ar
    25    23    26    1
    26    26    27    2
    27    26    28   am
    28    28     2    1
    29    11     5   ar
    30    16    12    1
    31    25    17   ar
    32    24    20   ar
    33    28    29    1
@<TRIPOS>MOLECULE
*****
 29 33 0 0 0
SMALL
GASTEIGER

@<TRIPOS>ATOM
      1 C          59.3167   92.6493    2.5251 C.3     1  UNL1        0.0213
      2 C          59.7816   93.1218    1.1794 C.3     1  UNL1        0.0723
      3 C          61.1513   93.6722    1.4459 C.3     1  UNL1        0.0259
      4 C          62.4298   94.3226    1.0071 C.3     1  UNL1        0.0472
      5 C          63.3241   94.9241   -0.0361 C.ar    1  UNL1        0.0568
      6 N          64.3343   95.1532    1.0488 N.ar    1  UNL1       -0.2461
      7 C          65.6498   95.7971    0.7250 C.ar    1  UNL1        0.1279
      8 C          65.9551   96.2119   -0.6838 C.ar    1  UNL1        0.1589
      9 F          67.2706   96.8558   -1.0077 F       1  UNL1       -0.2025
     10 C          64.9449   95.9828   -1.7688 C.ar    1  UNL1        0.0297
     11 C          63.6295   95.3390   -1.4449 C.ar    1  UNL1        0.0115
     12 C          63.2758   95.4721   -2.8965 C.3     1  UNL1        0.0979
     13 C          64.5281   96.1244   -3.4027 C.3     1  UNL1        0.0261
     14 C          64.3704   96.3484   -4.8775 C.3     1  UNL1        0.0235
     15 C          63.0206   95.8345   -5.2827 C.3     1  UNL1        0.0925
     16 N          62.3441   95.2929   -4.0584 N.pl3   1  UNL1       -0.2910
     17 C          61.0480   94.8426   -4.6644 C.ar    1  UNL1        0.1351
     18 C          59.6425   94.4984   -6.0460 C.ar    1  UNL1        0.0551
     19 C          58.2656   93.9129   -6.1512 C.ar    1  UNL1        0.1050
     20 N          57.5858   93.3703   -4.9292 N.ar    1  UNL1       -0.2104
     21 N          56.3627   92.7176   -4.3565 N.ar    1  UNL1       -0.1619
     22 C          56.5863   92.5234   -2.8860 C.ar    1  UNL1        0.1281
     23 C          57.9476   93.0561   -2.5499 C.ar    1  UNL1        0.1099
     24 C          58.5654   93.5795   -3.8125 C.ar    1  UNL1        0.1710
     25 N          59.6843   94.2242   -4.5756 N.ar    1  UNL1       -0.2116
     26 C          57.9725   92.7740   -1.0768 C.2     1  UNL1        0.2504
     27 O          56.6417   92.1349   -0.8111 O.2     1  UNL1       -0.2700
     28 N          58.6344   92.7977    0.2691 N.am    1  UNL1       -0.3024
     29 H          57.9689   92.3857    0.8663 H       1  UNL1        0.1497
@<TRIPOS>BOND
     1     2     1    1
     2     2     3    1
     3     3     4    1
     4     4     5    1
     5     5     6   ar
     6     6     7   ar
     7     7     8   ar
     8     8     9    1
     9     8    10   ar
    10    10    11   ar
    11    11    12    1
    12    12    13    1
    13    13    14    1
    14    14    15    1
    15    15    16    1
    16    16    17    1
    17    17    18   ar
    18    18    19   ar
    19    19    20   ar
    20    20    21   ar
    21    21    22   ar
    22    22    23   ar
    23    23    24   ar
    24    24    25   ar
    25    23    26    1
    26    26    27    2
    27    26    28   am
    28    28     2    1
    29    11     5   ar
    30    16    12    1
    31    25    17   ar
    32    24    20   ar
    33    28    29    1
@<TRIPOS>MOLECULE
*****
 29 33 0 0 0
SMALL
GASTEIGER

@<TRIPOS>ATOM
      1 C          61.2414   86.4736    7.6548 C.3     1  UNL1        0.0213
      2 C          61.7912   86.5093    9.0500 C.3     1  UNL1        0.0723
      3 C          61.8867   85.0628    9.4353 C.3     1  UNL1        0.0259
      4 C          62.2235   83.9648   10.4002 C.3     1  UNL1        0.0472
      5 C          62.7243   83.4668   11.7235 C.ar    1  UNL1        0.0568
      6 N          62.4747   82.0741   11.2254 N.ar    1  UNL1       -0.2461
      7 C          62.7753   80.8975   12.1059 C.ar    1  UNL1        0.1279
      8 C          63.3255   81.1136   13.4845 C.ar    1  UNL1        0.1589
      9 F          63.6261   79.9371   14.3650 F       1  UNL1       -0.2025
     10 C          63.5752   82.5063   13.9826 C.ar    1  UNL1        0.0297
     11 C          63.2746   83.6829   13.1021 C.ar    1  UNL1        0.0115
     12 C          63.7482   84.5636   14.2202 C.3     1  UNL1        0.0979
     13 C          64.1056   83.5162   15.2326 C.3     1  UNL1        0.0261
     14 C          64.6149   84.2124   16.4597 C.3     1  UNL1        0.0235
     15 C          64.5722   85.6901   16.2057 C.3     1  UNL1        0.0925
     16 N          64.0365   85.9072   14.8216 N.pl3   1  UNL1       -0.2910
     17 C          64.0737   87.4058   14.7686 C.ar    1  UNL1        0.1351
     18 C          64.3749   89.2965   15.3489 C.ar    1  UNL1        0.0551
     19 C          64.2204   90.6910   14.8185 C.ar    1  UNL1        0.1050
     20 N          63.6850   90.9121   13.4348 N.ar    1  UNL1       -0.2104
     21 N          63.3077   91.9065   12.3771 N.ar    1  UNL1       -0.1619
     22 C          62.8092   91.1470   11.1835 C.ar    1  UNL1        0.1281
     23 C          62.8784   89.6832   11.5036 C.ar    1  UNL1        0.1099
     24 C          63.4197   89.5380   12.8949 C.ar    1  UNL1        0.1710
     25 N          63.8510   88.7161   14.0732 N.ar    1  UNL1       -0.2116
     26 C          62.3511   89.1183   10.2179 C.2     1  UNL1        0.2504
     27 O          62.0694   90.3313    9.3817 O.2     1  UNL1       -0.2700
     28 N          61.9588   87.9729    9.3323 N.am    1  UNL1       -0.3024
     29 H          61.6506   88.4092    8.5054 H       1  UNL1        0.1497
@<TRIPOS>BOND
     1     2     1    1
     2     2     3    1
     3     3     4    1
     4     4     5    1
     5     5     6   ar
     6     6     7   ar
     7     7     8   ar
     8     8     9    1
     9     8    10   ar
    10    10    11   ar
    11    11    12    1
    12    12    13    1
    13    13    14    1
    14    14    15    1
    15    15    16    1
    16    16    17    1
    17    17    18   ar
    18    18    19   ar
    19    19    20   ar
    20    20    21   ar
    21    21    22   ar
    22    22    23   ar
    23    23    24   ar
    24    24    25   ar
    25    23    26    1
    26    26    27    2
    27    26    28   am
    28    28     2    1
    29    11     5   ar
    30    16    12    1
    31    25    17   ar
    32    24    20   ar
    33    28    29    1
@<TRIPOS>MOLECULE
*****
 29 33 0 0 0
SMALL
GASTEIGER

@<TRIPOS>ATOM
      1 C          64.5554   96.7893   -6.0500 C.3     1  UNL1        0.0213
      2 C          63.4742   96.2608   -5.1546 C.3     1  UNL1        0.0723
      3 C          64.2077   95.8409   -3.9154 C.3     1  UNL1        0.0259
      4 C          64.2556   95.2642   -2.5314 C.3     1  UNL1        0.0472
      5 C          63.6071   94.6629   -1.3199 C.ar    1  UNL1        0.0568
      6 N          64.9710   94.5921   -0.6997 N.ar    1  UNL1       -0.2461
      7 C          65.1385   94.0331    0.6821 C.ar    1  UNL1        0.1279
      8 C          63.9420   93.5448    1.4437 C.ar    1  UNL1        0.1589
      9 F          64.1095   92.9857    2.8255 F       1  UNL1       -0.2025
     10 C          62.5781   93.6156    0.8235 C.ar    1  UNL1        0.0297
     11 C          62.4106   94.1746   -0.5583 C.ar    1  UNL1        0.0115
     12 C          60.9403   93.9113   -0.4211 C.3     1  UNL1        0.0979
     13 C          60.9164   93.3259    0.9597 C.3     1  UNL1        0.0261
     14 C          59.4943   92.9860    1.2945 C.3     1  UNL1        0.0235
     15 C          58.6393   93.3613    0.1206 C.3     1  UNL1        0.0925
     16 N          59.5330   93.9332   -0.9398 N.pl3   1  UNL1       -0.2910
     17 C          58.5110   94.2353   -1.9954 C.ar    1  UNL1        0.1351
     18 C          56.7319   94.3682   -2.9006 C.ar    1  UNL1        0.0551
     19 C          56.1450   94.8340   -4.2000 C.ar    1  UNL1        0.1050
     20 N          57.0355   95.4064   -5.2628 N.ar    1  UNL1       -0.2104
     21 N          57.1313   95.9992   -6.6373 N.ar    1  UNL1       -0.1619
     22 C          58.5728   96.3143   -6.9068 C.ar    1  UNL1        0.1281
     23 C          59.3680   95.9162   -5.6988 C.ar    1  UNL1        0.1099
     24 C          58.4179   95.3551   -4.6827 C.ar    1  UNL1        0.1710
     25 N          58.1087   94.7485   -3.3462 N.ar    1  UNL1       -0.2116
     26 C          60.7414   96.3033   -6.1617 C.2     1  UNL1        0.2504
     27 O          60.5145   96.8522   -7.5391 O.2     1  UNL1       -0.2700
     28 N          62.2233   96.4276   -5.9653 N.am    1  UNL1       -0.3024
     29 H          62.5399   96.8270   -6.8076 H       1  UNL1        0.1497
@<TRIPOS>BOND
     1     2     1    1
     2     2     3    1
     3     3     4    1
     4     4     5    1
     5     5     6   ar
     6     6     7   ar
     7     7     8   ar
     8     8     9    1
     9     8    10   ar
    10    10    11   ar
    11    11    12    1
    12    12    13    1
    13    13    14    1
    14    14    15    1
    15    15    16    1
    16    16    17    1
    17    17    18   ar
    18    18    19   ar
    19    19    20   ar
    20    20    21   ar
    21    21    22   ar
    22    22    23   ar
    23    23    24   ar
    24    24    25   ar
    25    23    26    1
    26    26    27    2
    27    26    28   am
    28    28     2    1
    29    11     5   ar
    30    16    12    1
    31    25    17   ar
    32    24    20   ar
    33    28    29    1
@<TRIPOS>MOLECULE
*****
 29 33 0 0 0
SMALL
GASTEIGER

@<TRIPOS>ATOM
      1 C          60.5918   94.0873    1.3551 C.3     1  UNL1        0.0213
      2 C          60.3023   94.2397   -0.1088 C.3     1  UNL1        0.0723
      3 C          58.8326   94.5361   -0.1550 C.3     1  UNL1        0.0259
      4 C          57.5610   94.8376   -0.8913 C.3     1  UNL1        0.0472
      5 C          56.7788   95.0751   -2.1490 C.ar    1  UNL1        0.0568
      6 N          55.5654   95.2616   -1.2871 N.ar    1  UNL1       -0.2461
      7 C          54.2384   95.5672   -1.9161 C.ar    1  UNL1        0.1279
      8 C          54.1248   95.6863   -3.4070 C.ar    1  UNL1        0.1589
      9 F          52.7978   95.9919   -4.0360 F       1  UNL1       -0.2025
     10 C          55.3382   95.4998   -4.2689 C.ar    1  UNL1        0.0297
     11 C          56.6651   95.1942   -3.6399 C.ar    1  UNL1        0.0115
     12 C          57.2462   95.1676   -5.0226 C.3     1  UNL1        0.0979
     13 C          56.0118   95.4657   -5.8210 C.3     1  UNL1        0.0261
     14 C          56.3915   95.4837   -7.2720 C.3     1  UNL1        0.0235
     15 C          57.8605   95.1968   -7.3704 C.3     1  UNL1        0.0925
     16 N          58.3887   95.0014   -5.9802 N.pl3   1  UNL1       -0.2910
     17 C          59.8310   94.7337   -6.2934 C.ar    1  UNL1        0.1351
     18 C          61.5006   94.4696   -7.3636 C.ar    1  UNL1        0.0551
     19 C          62.9543   94.1658   -7.1532 C.ar    1  UNL1        0.1050
     20 N          63.4863   93.9698   -5.7645 N.ar    1  UNL1       -0.2104
     21 N          64.6806   93.6758   -4.9058 N.ar    1  UNL1       -0.1619
     22 C          64.2327   93.6727   -3.4743 C.ar    1  UNL1        0.1281
     23 C          62.7617   93.9647   -3.4482 C.ar    1  UNL1        0.1099
     24 C          62.3003   94.1483   -4.8635 C.ar    1  UNL1        0.1710
     25 N          61.2427   94.4259   -5.8904 N.ar    1  UNL1       -0.2116
     26 C          62.5209   93.9170   -1.9683 C.2     1  UNL1        0.2504
     27 O          63.8724   93.6101   -1.3945 O.2     1  UNL1       -0.2700
     28 N          61.6334   94.0163   -0.7631 N.am    1  UNL1       -0.3024
     29 H          62.2416   93.8460   -0.0079 H       1  UNL1        0.1497
@<TRIPOS>BOND
     1     2     1    1
     2     2     3    1
     3     3     4    1
     4     4     5    1
     5     5     6   ar
     6     6     7   ar
     7     7     8   ar
     8     8     9    1
     9     8    10   ar
    10    10    11   ar
    11    11    12    1
    12    12    13    1
    13    13    14    1
    14    14    15    1
    15    15    16    1
    16    16    17    1
    17    17    18   ar
    18    18    19   ar
    19    19    20   ar
    20    20    21   ar
    21    21    22   ar
    22    22    23   ar
    23    23    24   ar
    24    24    25   ar
    25    23    26    1
    26    26    27    2
    27    26    28   am
    28    28     2    1
    29    11     5   ar
    30    16    12    1
    31    25    17   ar
    32    24    20   ar
    33    28    29    1
