@<TRIPOS>MOLECULE
*****
 24 25 0 0 0
SMALL
GASTEIGER

@<TRIPOS>ATOM
      1 C          65.3728   91.8208   13.2796 C.ar    1  UNL1        0.1329
      2 N          66.2190   92.9735   12.8268 N.ar    1  UNL1       -0.1993
      3 C          66.0364   93.5432   11.4513 C.ar    1  UNL1        0.2148
      4 N          66.8827   94.6960   10.9984 N.pl3   1  UNL1       -0.3274
      5 N          65.0075   92.9601   10.5286 N.ar    1  UNL1       -0.2139
      6 C          64.1612   91.8073   10.9814 C.ar    1  UNL1        0.0870
      7 C          63.1324   91.2243   10.0587 C.ar    1  UNL1        0.0193
      8 C          62.2862   90.0716   10.5115 C.ar    1  UNL1        0.0017
      9 C          62.4688   89.5019   11.8870 C.ar    1  UNL1        0.0047
     10 C          63.4977   90.0850   12.8098 C.ar    1  UNL1        0.0575
     11 C          64.3439   91.2377   12.3569 C.ar    1  UNL1        0.0535
     12 H          67.5580   95.0786   11.6041 H       1  UNL1        0.1452
     13 H          66.7628   95.0699   10.0956 H       1  UNL1        0.1452
     14 C          63.6803   89.5153   14.1853 C.2     1  UNL1        0.2460
     15 O          64.7853   88.5364   14.4511 O.2     1  UNL1       -0.2701
     16 N          62.7579   89.9245   15.2951 N.am    1  UNL1       -0.2992
     17 C          62.9405   89.3549   16.6706 C.3     1  UNL1        0.1109
     18 H          62.0326   90.5670   15.1207 H       1  UNL1        0.1498
     19 N          65.5554   91.2512   14.6552 N.pl3   1  UNL1       -0.3180
     20 H          65.7234   90.2880   14.7708 H       1  UNL1        0.1482
     21 C          65.4821   92.1489   15.8546 C.3     1  UNL1        0.0882
     22 C          66.7374   92.7317   16.4331 C.3     1  UNL1        0.0212
     23 C          69.1320   93.4111   15.6885 C.3     1  UNL1        0.0001
     24 C          68.0714   92.3634   15.8542 C.3     1  UNL1        0.0017
@<TRIPOS>BOND
     1    23    24    1
     2    24    22    1
     3    22    21    1
     4    21    19    1
     5    19     1    1
     6     1     2   ar
     7     2     3   ar
     8     3     4    1
     9     3     5   ar
    10     5     6   ar
    11     6     7   ar
    12     7     8   ar
    13     8     9   ar
    14     9    10   ar
    15    10    14    1
    16    14    15    2
    17    14    16   am
    18    16    17    1
    19    10    11   ar
    20    11     1   ar
    21    11     6   ar
    22    19    20    1
    23     4    12    1
    24     4    13    1
    25    16    18    1
@<TRIPOS>MOLECULE
*****
 24 25 0 0 0
SMALL
GASTEIGER

@<TRIPOS>ATOM
      1 C          64.8720   91.7354   13.5600 C.ar    1  UNL1        0.1329
      2 N          64.6086   91.2514   14.9551 N.ar    1  UNL1       -0.1993
      3 C          63.4732   90.3076   15.2197 C.ar    1  UNL1        0.2148
      4 N          63.2098   89.8237   16.6149 N.pl3   1  UNL1       -0.3274
      5 N          62.6011   89.8478   14.0893 N.ar    1  UNL1       -0.2139
      6 C          62.8645   90.3318   12.6941 C.ar    1  UNL1        0.0870
      7 C          61.9924   89.8720   11.5636 C.ar    1  UNL1        0.0193
      8 C          62.2558   90.3560   10.1685 C.ar    1  UNL1        0.0017
      9 C          63.3912   91.2998    9.9039 C.ar    1  UNL1        0.0047
     10 C          64.2633   91.7596   11.0343 C.ar    1  UNL1        0.0575
     11 C          63.9999   91.2756   12.4294 C.ar    1  UNL1        0.0535
     12 H          63.7822   90.1255   17.3569 H       1  UNL1        0.1452
     13 H          62.4646   89.2042   16.7886 H       1  UNL1        0.1452
     14 C          65.3987   92.7034   10.7697 C.2     1  UNL1        0.2460
     15 O          66.7988   92.1781   10.6521 O.2     1  UNL1       -0.2701
     16 N          65.1341   94.1725   10.6228 N.am    1  UNL1       -0.2992
     17 C          66.2696   95.1163   10.3581 C.3     1  UNL1        0.1109
     18 H          64.2152   94.5173   10.7000 H       1  UNL1        0.1498
     19 N          66.0074   92.6792   13.2954 N.pl3   1  UNL1       -0.3180
     20 H          66.1673   93.0134   12.3833 H       1  UNL1        0.1482
     21 C          66.8992   93.1138   14.4205 C.3     1  UNL1        0.0882
     22 C          67.8881   92.1512   15.0084 C.3     1  UNL1        0.0212
     23 C          69.1451   94.1175   16.1502 C.3     1  UNL1        0.0001
     24 C          68.9443   92.6442   15.9526 C.3     1  UNL1        0.0017
@<TRIPOS>BOND
     1    23    24    1
     2    24    22    1
     3    22    21    1
     4    21    19    1
     5    19     1    1
     6     1     2   ar
     7     2     3   ar
     8     3     4    1
     9     3     5   ar
    10     5     6   ar
    11     6     7   ar
    12     7     8   ar
    13     8     9   ar
    14     9    10   ar
    15    10    14    1
    16    14    15    2
    17    14    16   am
    18    16    17    1
    19    10    11   ar
    20    11     1   ar
    21    11     6   ar
    22    19    20    1
    23     4    12    1
    24     4    13    1
    25    16    18    1
@<TRIPOS>MOLECULE
*****
 24 25 0 0 0
SMALL
GASTEIGER

@<TRIPOS>ATOM
      1 C          63.9571   91.0430   14.3991 C.ar    1  UNL1        0.1329
      2 N          64.7329   91.5555   15.5761 N.ar    1  UNL1       -0.1993
      3 C          65.8403   92.5461   15.3707 C.ar    1  UNL1        0.2148
      4 N          66.6162   93.0586   16.5478 N.pl3   1  UNL1       -0.3274
      5 N          66.1720   93.0242   13.9882 N.ar    1  UNL1       -0.2139
      6 C          65.3962   92.5118   12.8111 C.ar    1  UNL1        0.0870
      7 C          65.7278   92.9899   11.4286 C.ar    1  UNL1        0.0193
      8 C          64.9520   92.4774   10.2515 C.ar    1  UNL1        0.0017
      9 C          63.8446   91.4868   10.4570 C.ar    1  UNL1        0.0047
     10 C          63.5129   91.0087   11.8395 C.ar    1  UNL1        0.0575
     11 C          64.2887   91.5212   13.0165 C.ar    1  UNL1        0.0535
     12 H          66.3985   92.7448   17.4552 H       1  UNL1        0.1452
     13 H          67.3430   93.7088   16.4130 H       1  UNL1        0.1452
     14 C          62.4055   90.0181   12.0450 C.2     1  UNL1        0.2460
     15 O          62.7265   88.5704   12.2708 O.2     1  UNL1       -0.2701
     16 N          60.9770   90.4752   12.0246 N.am    1  UNL1       -0.2992
     17 C          59.8695   89.4846   12.2300 C.3     1  UNL1        0.1109
     18 H          60.7663   91.4253   11.8763 H       1  UNL1        0.1498
     19 N          62.8496   90.0524   14.6046 N.pl3   1  UNL1       -0.3180
     20 H          62.3039   89.7585   13.8397 H       1  UNL1        0.1482
     21 C          62.5736   89.5097   15.9754 C.3     1  UNL1        0.0882
     22 C          63.3210   88.3071   16.4704 C.3     1  UNL1        0.0212
     23 C          62.6670   86.0186   17.5122 C.3     1  UNL1        0.0001
     24 C          62.7818   87.5102   17.6213 C.3     1  UNL1        0.0017
@<TRIPOS>BOND
     1    23    24    1
     2    24    22    1
     3    22    21    1
     4    21    19    1
     5    19     1    1
     6     1     2   ar
     7     2     3   ar
     8     3     4    1
     9     3     5   ar
    10     5     6   ar
    11     6     7   ar
    12     7     8   ar
    13     8     9   ar
    14     9    10   ar
    15    10    14    1
    16    14    15    2
    17    14    16   am
    18    16    17    1
    19    10    11   ar
    20    11     1   ar
    21    11     6   ar
    22    19    20    1
    23     4    12    1
    24     4    13    1
    25    16    18    1
@<TRIPOS>MOLECULE
*****
 24 25 0 0 0
SMALL
GASTEIGER

@<TRIPOS>ATOM
      1 C          63.4748   87.2930   13.1021 C.ar    1  UNL1        0.1329
      2 N          63.7963   88.6788   13.5777 N.ar    1  UNL1       -0.1993
      3 C          63.3550   89.8678   12.7768 C.ar    1  UNL1        0.2148
      4 N          63.6765   91.2537   13.2525 N.pl3   1  UNL1       -0.3274
      5 N          62.5923   89.6711   11.5003 N.ar    1  UNL1       -0.2139
      6 C          62.2708   88.2853   11.0246 C.ar    1  UNL1        0.0870
      7 C          61.5081   88.0885    9.7481 C.ar    1  UNL1        0.0193
      8 C          61.1866   86.7028    9.2725 C.ar    1  UNL1        0.0017
      9 C          61.6279   85.5137   10.0734 C.ar    1  UNL1        0.0047
     10 C          62.3906   85.7104   11.3499 C.ar    1  UNL1        0.0575
     11 C          62.7121   87.0962   11.8255 C.ar    1  UNL1        0.0535
     12 H          64.1771   91.3828   14.0903 H       1  UNL1        0.1452
     13 H          63.3869   92.0341   12.7268 H       1  UNL1        0.1452
     14 C          62.8319   84.5214   12.1508 C.2     1  UNL1        0.2460
     15 O          62.1160   84.1642   13.4196 O.2     1  UNL1       -0.2701
     16 N          63.9891   83.6896   11.6830 N.am    1  UNL1       -0.2992
     17 C          64.4303   82.5005   12.4839 C.3     1  UNL1        0.1109
     18 H          64.4590   83.9240   10.8502 H       1  UNL1        0.1498
     19 N          63.9161   86.1040   13.9030 N.pl3   1  UNL1       -0.3180
     20 H          63.9211   85.2088   13.4932 H       1  UNL1        0.1482
     21 C          64.3497   86.2787   15.3282 C.3     1  UNL1        0.0882
     22 C          63.4349   85.8732   16.4456 C.3     1  UNL1        0.0212
     23 C          63.0522   88.3711   17.0495 C.3     1  UNL1        0.0001
     24 C          62.8493   86.9158   17.3514 C.3     1  UNL1        0.0017
@<TRIPOS>BOND
     1    23    24    1
     2    24    22    1
     3    22    21    1
     4    21    19    1
     5    19     1    1
     6     1     2   ar
     7     2     3   ar
     8     3     4    1
     9     3     5   ar
    10     5     6   ar
    11     6     7   ar
    12     7     8   ar
    13     8     9   ar
    14     9    10   ar
    15    10    14    1
    16    14    15    2
    17    14    16   am
    18    16    17    1
    19    10    11   ar
    20    11     1   ar
    21    11     6   ar
    22    19    20    1
    23     4    12    1
    24     4    13    1
    25    16    18    1
@<TRIPOS>MOLECULE
*****
 24 25 0 0 0
SMALL
GASTEIGER

@<TRIPOS>ATOM
      1 C          62.7923   86.3293   12.2200 C.ar    1  UNL1        0.1329
      2 N          63.3393   85.6294   13.4286 N.ar    1  UNL1       -0.1993
      3 C          64.0539   86.4127   14.4897 C.ar    1  UNL1        0.2148
      4 N          64.6009   85.7126   15.6983 N.pl3   1  UNL1       -0.3274
      5 N          64.2214   87.8959   14.3422 N.ar    1  UNL1       -0.2139
      6 C          63.6744   88.5960   13.1335 C.ar    1  UNL1        0.0870
      7 C          63.8419   90.0793   12.9860 C.ar    1  UNL1        0.0193
      8 C          63.2949   90.7792   11.7773 C.ar    1  UNL1        0.0017
      9 C          62.5804   89.9959   10.7163 C.ar    1  UNL1        0.0047
     10 C          62.4128   88.5127   10.8638 C.ar    1  UNL1        0.0575
     11 C          62.9598   87.8127   12.0724 C.ar    1  UNL1        0.0535
     12 H          64.4909   84.7391   15.7952 H       1  UNL1        0.1452
     13 H          65.0698   86.2267   16.3948 H       1  UNL1        0.1452
     14 C          61.6983   87.7293    9.8027 C.2     1  UNL1        0.2460
     15 O          62.4806   86.9006    8.8275 O.2     1  UNL1       -0.2701
     16 N          60.2015   87.7748    9.7169 N.am    1  UNL1       -0.2992
     17 C          59.4869   86.9915    8.6558 C.3     1  UNL1        0.1109
     18 H          59.6880   88.3188   10.3569 H       1  UNL1        0.1498
     19 N          62.0778   85.5460   11.1589 N.pl3   1  UNL1       -0.3180
     20 H          61.4074   85.9873   10.5887 H       1  UNL1        0.1482
     21 C          62.3847   84.0905   10.9666 C.3     1  UNL1        0.0882
     22 C          63.6324   83.6760   10.2444 C.3     1  UNL1        0.0212
     23 C          64.3760   82.2907   12.3128 C.3     1  UNL1        0.0001
     24 C          64.6561   82.8295   10.9412 C.3     1  UNL1        0.0017
@<TRIPOS>BOND
     1    23    24    1
     2    24    22    1
     3    22    21    1
     4    21    19    1
     5    19     1    1
     6     1     2   ar
     7     2     3   ar
     8     3     4    1
     9     3     5   ar
    10     5     6   ar
    11     6     7   ar
    12     7     8   ar
    13     8     9   ar
    14     9    10   ar
    15    10    14    1
    16    14    15    2
    17    14    16   am
    18    16    17    1
    19    10    11   ar
    20    11     1   ar
    21    11     6   ar
    22    19    20    1
    23     4    12    1
    24     4    13    1
    25    16    18    1
@<TRIPOS>MOLECULE
*****
 24 25 0 0 0
SMALL
GASTEIGER

@<TRIPOS>ATOM
      1 C          64.7321   91.7986   12.1046 C.ar    1  UNL1        0.1329
      2 N          64.8941   92.5541   10.8190 N.ar    1  UNL1       -0.1993
      3 C          65.8166   93.7351   10.7542 C.ar    1  UNL1        0.2148
      4 N          65.9786   94.4906    9.4685 N.pl3   1  UNL1       -0.3274
      5 N          66.5772   94.1606   11.9751 N.ar    1  UNL1       -0.2139
      6 C          66.4152   93.4051   13.2608 C.ar    1  UNL1        0.0870
      7 C          67.1757   93.8305   14.4817 C.ar    1  UNL1        0.0193
      8 C          67.0137   93.0750   15.7673 C.ar    1  UNL1        0.0017
      9 C          66.0911   91.8940   15.8321 C.ar    1  UNL1        0.0047
     10 C          65.3306   91.4686   14.6112 C.ar    1  UNL1        0.0575
     11 C          65.4926   92.2241   13.3256 C.ar    1  UNL1        0.0535
     12 H          65.4795   94.2114    8.6672 H       1  UNL1        0.1452
     13 H          66.5841   95.2658    9.4260 H       1  UNL1        0.1452
     14 C          64.4081   90.2876   14.6760 C.2     1  UNL1        0.2460
     15 O          62.9328   90.4968   14.8486 O.2     1  UNL1       -0.2701
     16 N          64.9608   88.8973   14.5682 N.am    1  UNL1       -0.2992
     17 C          64.0382   87.7163   14.6329 C.3     1  UNL1        0.1109
     18 H          65.9290   88.7600   14.4548 H       1  UNL1        0.1498
     19 N          63.8095   90.6176   12.1694 N.pl3   1  UNL1       -0.3180
     20 H          64.0282   89.8535   12.7503 H       1  UNL1        0.1482
     21 C          62.5539   90.6009   11.3491 C.3     1  UNL1        0.0882
     22 C          62.3849   89.5867   10.2569 C.3     1  UNL1        0.0212
     23 C          62.0618   87.1189    9.5116 C.3     1  UNL1        0.0001
     24 C          62.1486   88.1460   10.6013 C.3     1  UNL1        0.0017
@<TRIPOS>BOND
     1    23    24    1
     2    24    22    1
     3    22    21    1
     4    21    19    1
     5    19     1    1
     6     1     2   ar
     7     2     3   ar
     8     3     4    1
     9     3     5   ar
    10     5     6   ar
    11     6     7   ar
    12     7     8   ar
    13     8     9   ar
    14     9    10   ar
    15    10    14    1
    16    14    15    2
    17    14    16   am
    18    16    17    1
    19    10    11   ar
    20    11     1   ar
    21    11     6   ar
    22    19    20    1
    23     4    12    1
    24     4    13    1
    25    16    18    1
@<TRIPOS>MOLECULE
*****
 24 25 0 0 0
SMALL
GASTEIGER

@<TRIPOS>ATOM
      1 C          63.3251   87.0229   12.9521 C.ar    1  UNL1        0.1329
      2 N          63.2891   85.5392   12.7345 N.ar    1  UNL1       -0.1993
      3 C          62.6677   84.9787   11.4896 C.ar    1  UNL1        0.2148
      4 N          62.6317   83.4949   11.2720 N.pl3   1  UNL1       -0.3274
      5 N          62.0824   85.9018   10.4624 N.ar    1  UNL1       -0.2139
      6 C          62.1184   87.3855   10.6800 C.ar    1  UNL1        0.0870
      7 C          61.5331   88.3087    9.6529 C.ar    1  UNL1        0.0193
      8 C          61.5691   89.7923    9.8705 C.ar    1  UNL1        0.0017
      9 C          62.1905   90.3528   11.1154 C.ar    1  UNL1        0.0047
     10 C          62.7758   89.4297   12.1426 C.ar    1  UNL1        0.0575
     11 C          62.7398   87.9461   11.9249 C.ar    1  UNL1        0.0535
     12 H          63.0159   82.8891   11.9462 H       1  UNL1        0.1452
     13 H          62.2238   83.1270   10.4549 H       1  UNL1        0.1452
     14 C          63.3972   89.9903   13.3874 C.2     1  UNL1        0.2460
     15 O          62.6320   89.9805   14.6775 O.2     1  UNL1       -0.2701
     16 N          64.7838   90.5606   13.3422 N.am    1  UNL1       -0.2992
     17 C          65.4052   91.1211   14.5871 C.3     1  UNL1        0.1109
     18 H          65.2860   90.5670   12.4955 H       1  UNL1        0.1498
     19 N          63.9465   87.5834   14.1970 N.pl3   1  UNL1       -0.3180
     20 H          63.9542   88.5562   14.3483 H       1  UNL1        0.1482
     21 C          64.5562   86.6618   15.2113 C.3     1  UNL1        0.0882
     22 C          63.6786   85.7646   16.0328 C.3     1  UNL1        0.0212
     23 C          62.8902   87.7914   17.4543 C.3     1  UNL1        0.0001
     24 C          62.9639   86.3096   17.2338 C.3     1  UNL1        0.0017
@<TRIPOS>BOND
     1    23    24    1
     2    24    22    1
     3    22    21    1
     4    21    19    1
     5    19     1    1
     6     1     2   ar
     7     2     3   ar
     8     3     4    1
     9     3     5   ar
    10     5     6   ar
    11     6     7   ar
    12     7     8   ar
    13     8     9   ar
    14     9    10   ar
    15    10    14    1
    16    14    15    2
    17    14    16   am
    18    16    17    1
    19    10    11   ar
    20    11     1   ar
    21    11     6   ar
    22    19    20    1
    23     4    12    1
    24     4    13    1
    25    16    18    1
@<TRIPOS>MOLECULE
*****
 24 25 0 0 0
SMALL
GASTEIGER

@<TRIPOS>ATOM
      1 C          62.2131   86.1581   11.2865 C.ar    1  UNL1        0.1329
      2 N          62.2037   84.6627   11.1699 N.ar    1  UNL1       -0.1993
      3 C          62.9533   83.8281   12.1657 C.ar    1  UNL1        0.2148
      4 N          62.9439   82.3326   12.0491 N.pl3   1  UNL1       -0.3274
      5 N          63.7123   84.4889   13.2780 N.ar    1  UNL1       -0.2139
      6 C          63.7218   85.9843   13.3946 C.ar    1  UNL1        0.0870
      7 C          64.4808   86.6451   14.5068 C.ar    1  UNL1        0.0193
      8 C          64.4902   88.1405   14.6234 C.ar    1  UNL1        0.0017
      9 C          63.7405   88.9752   13.6276 C.ar    1  UNL1        0.0047
     10 C          62.9815   88.3144   12.5154 C.ar    1  UNL1        0.0575
     11 C          62.9721   86.8190   12.3988 C.ar    1  UNL1        0.0535
     12 H          62.4457   81.8989   11.3190 H       1  UNL1        0.1452
     13 H          63.4359   81.7848   12.7026 H       1  UNL1        0.1452
     14 C          62.2319   89.1490   11.5196 C.2     1  UNL1        0.2460
     15 O          62.8908   89.5561   10.2351 O.2     1  UNL1       -0.2701
     16 N          60.8235   89.5765   11.8084 N.am    1  UNL1       -0.2992
     17 C          60.0738   90.4111   10.8127 C.3     1  UNL1        0.1109
     18 H          60.3910   89.3092   12.6516 H       1  UNL1        0.1498
     19 N          61.4635   86.9927   10.2908 N.pl3   1  UNL1       -0.3180
     20 H          60.9581   87.7822   10.5915 H       1  UNL1        0.1482
     21 C          61.4839   86.6244    8.8368 C.3     1  UNL1        0.0882
     22 C          60.2370   86.1195    8.1734 C.3     1  UNL1        0.0212
     23 C          59.4323   88.5117    7.5566 C.3     1  UNL1        0.0001
     24 C          59.1259   87.0712    7.8417 C.3     1  UNL1        0.0017
@<TRIPOS>BOND
     1    23    24    1
     2    24    22    1
     3    22    21    1
     4    21    19    1
     5    19     1    1
     6     1     2   ar
     7     2     3   ar
     8     3     4    1
     9     3     5   ar
    10     5     6   ar
    11     6     7   ar
    12     7     8   ar
    13     8     9   ar
    14     9    10   ar
    15    10    14    1
    16    14    15    2
    17    14    16   am
    18    16    17    1
    19    10    11   ar
    20    11     1   ar
    21    11     6   ar
    22    19    20    1
    23     4    12    1
    24     4    13    1
    25    16    18    1
@<TRIPOS>MOLECULE
*****
 24 25 0 0 0
SMALL
GASTEIGER

@<TRIPOS>ATOM
      1 C          62.8133   86.9394   12.3345 C.ar    1  UNL1        0.1329
      2 N          62.1016   86.7637   11.0258 N.ar    1  UNL1       -0.1993
      3 C          61.9292   87.9334   10.1029 C.ar    1  UNL1        0.2148
      4 N          61.2175   87.7577    8.7942 N.pl3   1  UNL1       -0.3274
      5 N          62.4684   89.2789   10.4885 N.ar    1  UNL1       -0.2139
      6 C          63.1801   89.4547   11.7972 C.ar    1  UNL1        0.0870
      7 C          63.7194   90.8002   12.1829 C.ar    1  UNL1        0.0193
      8 C          64.4311   90.9759   13.4916 C.ar    1  UNL1        0.0017
      9 C          64.6035   89.8062   14.4145 C.ar    1  UNL1        0.0047
     10 C          64.0642   88.4607   14.0289 C.ar    1  UNL1        0.0575
     11 C          63.3526   88.2849   12.7202 C.ar    1  UNL1        0.0535
     12 H          60.8635   86.8745    8.5410 H       1  UNL1        0.1452
     13 H          61.1043   88.5254    8.1884 H       1  UNL1        0.1452
     14 C          64.2366   87.2909   14.9519 C.2     1  UNL1        0.2460
     15 O          65.3601   86.3215   14.7323 O.2     1  UNL1       -0.2701
     16 N          63.2856   87.0905   16.0944 N.am    1  UNL1       -0.2992
     17 C          63.4581   85.9207   17.0173 C.3     1  UNL1        0.1109
     18 H          62.5483   87.7267   16.2385 H       1  UNL1        0.1498
     19 N          62.9857   85.7696   13.2575 N.pl3   1  UNL1       -0.3180
     20 H          63.1377   85.9192   14.2186 H       1  UNL1        0.1482
     21 C          62.9264   84.3720   12.7161 C.3     1  UNL1        0.0882
     22 C          64.1587   83.5168   12.7109 C.3     1  UNL1        0.0212
     23 C          64.0775   83.0482   10.1566 C.3     1  UNL1        0.0001
     24 C          64.4407   82.6148   11.5460 C.3     1  UNL1        0.0017
@<TRIPOS>BOND
     1    23    24    1
     2    24    22    1
     3    22    21    1
     4    21    19    1
     5    19     1    1
     6     1     2   ar
     7     2     3   ar
     8     3     4    1
     9     3     5   ar
    10     5     6   ar
    11     6     7   ar
    12     7     8   ar
    13     8     9   ar
    14     9    10   ar
    15    10    14    1
    16    14    15    2
    17    14    16   am
    18    16    17    1
    19    10    11   ar
    20    11     1   ar
    21    11     6   ar
    22    19    20    1
    23     4    12    1
    24     4    13    1
    25    16    18    1
