@<TRIPOS>MOLECULE
*****
 25 27 0 0 0
SMALL
GASTEIGER

@<TRIPOS>ATOM
      1 C          64.0073   89.3120   14.9347 C.ar    1  UNL1        0.1227
      2 C          64.3524   87.8571   14.8156 C.ar    1  UNL1        0.0595
      3 C          63.5911   87.1121   15.8717 C.ar    1  UNL1        0.1719
      4 O          62.7755   88.1065   16.6437 O.2     1  UNL1       -0.3563
      5 N          63.0328   89.4661   16.0645 N.ar    1  UNL1       -0.0773
      6 C          65.6136   92.6313   12.3556 C.ar    1  UNL1        0.1387
      7 C          64.4474   91.8135   11.8854 C.ar    1  UNL1        0.0370
      8 C          63.9120   90.7071   12.7451 C.ar    1  UNL1        0.0047
      9 C          64.5427   90.4184   14.0750 C.ar    1  UNL1        0.0211
     10 C          65.7089   91.2362   14.5452 C.ar    1  UNL1        0.0047
     11 C          66.2444   92.3427   13.6855 C.ar    1  UNL1        0.0370
     12 C          66.4625   93.4807   10.0517 C.3     1  UNL1        0.2525
     13 O          66.1490   93.7377   11.4959 O.3     1  UNL1       -0.4714
     14 C          63.6374   85.6324   16.1135 C.3     1  UNL1        0.1583
     15 N          62.5549   84.7491   15.5676 N.3     1  UNL1       -0.1716
     16 H          61.7498   85.3483   15.3853 H       1  UNL1        0.1493
     17 S          62.7945   83.9540   14.3184 S.O2    1  UNL1        0.0606
     18 O          63.2222   82.7797   15.1478 O.2     1  UNL1       -0.1530
     19 O          62.3668   85.1285   13.4889 O.2     1  UNL1       -0.1530
     20 C          63.0341   83.1591   13.0691 C.ar    1  UNL1        0.1220
     21 C          63.7394   83.7874   11.9039 C.ar    1  UNL1        0.0199
     22 C          63.9788   82.9923   10.6547 C.ar    1  UNL1        0.0014
     23 C          63.5131   81.5689   10.5708 C.ar    1  UNL1        0.0001
     24 C          62.8078   80.9406   11.7360 C.ar    1  UNL1        0.0014
     25 C          62.5683   81.7357   12.9852 C.ar    1  UNL1        0.0199
@<TRIPOS>BOND
     1    12    13    1
     2    13     6    1
     3     6     7   ar
     4     7     8   ar
     5     8     9   ar
     6     9     1    1
     7     1     2   ar
     8     2     3   ar
     9     3    14    1
    10    14    15    1
    11    15    17    1
    12    17    18    2
    13    17    19    2
    14    17    20    1
    15    20    21   ar
    16    21    22   ar
    17    22    23   ar
    18    23    24   ar
    19    24    25   ar
    20     3     4   ar
    21     4     5   ar
    22     9    10   ar
    23    10    11   ar
    24    11     6   ar
    25     5     1   ar
    26    25    20   ar
    27    15    16    1
@<TRIPOS>MOLECULE
*****
 25 27 0 0 0
SMALL
GASTEIGER

@<TRIPOS>ATOM
      1 C          63.4747   91.0481   11.7775 C.ar    1  UNL1        0.1227
      2 C          62.3096   90.3814   12.4468 C.ar    1  UNL1        0.0595
      3 C          61.2750   90.0947   11.3992 C.ar    1  UNL1        0.1719
      4 O          61.8007   90.5842   10.0824 O.2     1  UNL1       -0.3563
      5 N          63.1602   91.1735   10.3162 N.ar    1  UNL1       -0.0773
      6 C          67.2506   92.4296   13.7984 C.ar    1  UNL1        0.1387
      7 C          66.3266   91.4811   14.5031 C.ar    1  UNL1        0.0370
      8 C          65.0680   91.0206   13.8294 C.ar    1  UNL1        0.0047
      9 C          64.7333   91.5086   12.4511 C.ar    1  UNL1        0.0211
     10 C          65.6573   92.4571   11.7464 C.ar    1  UNL1        0.0047
     11 C          66.9159   92.9176   12.4201 C.ar    1  UNL1        0.0370
     12 C          68.4402   93.5644   15.8101 C.3     1  UNL1        0.2525
     13 O          68.5092   92.8901   14.4720 O.3     1  UNL1       -0.4714
     14 C          59.9478   89.4344   11.6283 C.3     1  UNL1        0.1583
     15 N          59.8373   87.9390   11.5884 N.3     1  UNL1       -0.1716
     16 H          58.8418   87.7178   11.5656 H       1  UNL1        0.1493
     17 S          60.4776   87.1692   10.4716 S.O2    1  UNL1        0.0606
     18 O          61.3030   86.4102   11.4678 O.2     1  UNL1       -0.1530
     19 O          59.6522   87.9283    9.4752 O.2     1  UNL1       -0.1530
     20 C          61.1179   86.3994    9.3546 C.ar    1  UNL1        0.1220
     21 C          62.5215   85.8913    9.5021 C.ar    1  UNL1        0.0199
     22 C          63.1616   85.1216    8.3850 C.ar    1  UNL1        0.0014
     23 C          62.3982   84.8600    7.1206 C.ar    1  UNL1        0.0001
     24 C          60.9946   85.3681    6.9732 C.ar    1  UNL1        0.0014
     25 C          60.3545   86.1379    8.0902 C.ar    1  UNL1        0.0199
@<TRIPOS>BOND
     1    12    13    1
     2    13     6    1
     3     6     7   ar
     4     7     8   ar
     5     8     9   ar
     6     9     1    1
     7     1     2   ar
     8     2     3   ar
     9     3    14    1
    10    14    15    1
    11    15    17    1
    12    17    18    2
    13    17    19    2
    14    17    20    1
    15    20    21   ar
    16    21    22   ar
    17    22    23   ar
    18    23    24   ar
    19    24    25   ar
    20     3     4   ar
    21     4     5   ar
    22     9    10   ar
    23    10    11   ar
    24    11     6   ar
    25     5     1   ar
    26    25    20   ar
    27    15    16    1
@<TRIPOS>MOLECULE
*****
 25 27 0 0 0
SMALL
GASTEIGER

@<TRIPOS>ATOM
      1 C          63.4698   90.4509   12.5233 C.ar    1  UNL1        0.1227
      2 C          63.1737   90.1078   11.0934 C.ar    1  UNL1        0.0595
      3 C          61.8605   89.3842   11.0527 C.ar    1  UNL1        0.1719
      4 O          61.3449   89.2800   12.4575 O.2     1  UNL1       -0.3563
      5 N          62.3395   89.9393   13.3663 N.ar    1  UNL1       -0.0773
      6 C          67.1099   92.6319   14.0211 C.ar    1  UNL1        0.1387
      7 C          66.5440   91.4878   14.8090 C.ar    1  UNL1        0.0370
      8 C          65.3307   90.7608   14.3097 C.ar    1  UNL1        0.0047
      9 C          64.6832   91.1779   13.0226 C.ar    1  UNL1        0.0211
     10 C          65.2490   92.3220   12.2347 C.ar    1  UNL1        0.0047
     11 C          66.4624   93.0490   12.7339 C.ar    1  UNL1        0.0370
     12 C          68.8101   93.1321   15.9208 C.3     1  UNL1        0.2525
     13 O          68.3232   93.3590   14.5203 O.3     1  UNL1       -0.4714
     14 C          61.1819   88.8573    9.8231 C.3     1  UNL1        0.1583
     15 N          60.7087   87.4346    9.7790 N.3     1  UNL1       -0.1716
     16 H          60.4352   87.2450    8.8149 H       1  UNL1        0.1493
     17 S          61.6286   86.3250   10.1944 S.O2    1  UNL1        0.0606
     18 O          61.0128   86.3264   11.5621 O.2     1  UNL1       -0.1530
     19 O          62.2444   86.3236    8.8266 O.2     1  UNL1       -0.1530
     20 C          62.5486   85.2154   10.6097 C.ar    1  UNL1        0.1220
     21 C          62.7468   84.9104   12.0649 C.ar    1  UNL1        0.0199
     22 C          63.6668   83.8007   12.4800 C.ar    1  UNL1        0.0014
     23 C          64.3886   82.9962   11.4399 C.ar    1  UNL1        0.0001
     24 C          64.1903   83.3012    9.9847 C.ar    1  UNL1        0.0014
     25 C          63.2703   84.4108    9.5696 C.ar    1  UNL1        0.0199
@<TRIPOS>BOND
     1    12    13    1
     2    13     6    1
     3     6     7   ar
     4     7     8   ar
     5     8     9   ar
     6     9     1    1
     7     1     2   ar
     8     2     3   ar
     9     3    14    1
    10    14    15    1
    11    15    17    1
    12    17    18    2
    13    17    19    2
    14    17    20    1
    15    20    21   ar
    16    21    22   ar
    17    22    23   ar
    18    23    24   ar
    19    24    25   ar
    20     3     4   ar
    21     4     5   ar
    22     9    10   ar
    23    10    11   ar
    24    11     6   ar
    25     5     1   ar
    26    25    20   ar
    27    15    16    1
@<TRIPOS>MOLECULE
*****
 25 27 0 0 0
SMALL
GASTEIGER

@<TRIPOS>ATOM
      1 C          63.5285   90.9511   11.7557 C.ar    1  UNL1        0.1227
      2 C          62.6414   89.8040   12.1394 C.ar    1  UNL1        0.0595
      3 C          61.7613   89.4863   10.9670 C.ar    1  UNL1        0.1719
      4 O          62.1044   90.4371    9.8587 O.2     1  UNL1       -0.3563
      5 N          63.1966   91.3424   10.3462 N.ar    1  UNL1       -0.0773
      6 C          66.6391   92.8800   14.3736 C.ar    1  UNL1        0.1387
      7 C          66.3993   93.3990   12.9869 C.ar    1  UNL1        0.0370
      8 C          65.3624   92.7561   12.1143 C.ar    1  UNL1        0.0047
      9 C          64.5653   91.5941   12.6283 C.ar    1  UNL1        0.0211
     10 C          64.8051   91.0750   14.0151 C.ar    1  UNL1        0.0047
     11 C          65.8420   91.7180   14.8877 C.ar    1  UNL1        0.0370
     12 C          68.7606   92.6890   15.8611 C.3     1  UNL1        0.2525
     13 O          67.6760   93.5229   15.2463 O.3     1  UNL1       -0.4714
     14 C          60.7207   88.4073   10.9124 C.3     1  UNL1        0.1583
     15 N          60.9015   87.2369    9.9919 N.3     1  UNL1       -0.1716
     16 H          61.2754   87.6052    9.1173 H       1  UNL1        0.1493
     17 S          61.7874   86.0956   10.3950 S.O2    1  UNL1        0.0606
     18 O          61.3006   86.2169   11.8085 O.2     1  UNL1       -0.1530
     19 O          62.2743   85.9743    8.9813 O.2     1  UNL1       -0.1530
     20 C          62.6734   84.9542   10.7979 C.ar    1  UNL1        0.1220
     21 C          62.8332   84.6043   12.2477 C.ar    1  UNL1        0.0199
     22 C          63.7192   83.4630   12.6506 C.ar    1  UNL1        0.0014
     23 C          64.4454   82.6715   11.6036 C.ar    1  UNL1        0.0001
     24 C          64.2856   83.0214   10.1537 C.ar    1  UNL1        0.0014
     25 C          63.3996   84.1628    9.7509 C.ar    1  UNL1        0.0199
@<TRIPOS>BOND
     1    12    13    1
     2    13     6    1
     3     6     7   ar
     4     7     8   ar
     5     8     9   ar
     6     9     1    1
     7     1     2   ar
     8     2     3   ar
     9     3    14    1
    10    14    15    1
    11    15    17    1
    12    17    18    2
    13    17    19    2
    14    17    20    1
    15    20    21   ar
    16    21    22   ar
    17    22    23   ar
    18    23    24   ar
    19    24    25   ar
    20     3     4   ar
    21     4     5   ar
    22     9    10   ar
    23    10    11   ar
    24    11     6   ar
    25     5     1   ar
    26    25    20   ar
    27    15    16    1
@<TRIPOS>MOLECULE
*****
 25 27 0 0 0
SMALL
GASTEIGER

@<TRIPOS>ATOM
      1 C          62.5392   85.1367   10.3905 C.ar    1  UNL1        0.1227
      2 C          62.4758   84.7504   11.8385 C.ar    1  UNL1        0.0595
      3 C          63.4085   83.5951   12.0514 C.ar    1  UNL1        0.1719
      4 O          64.0484   83.2674   10.7349 O.2     1  UNL1       -0.3563
      5 N          63.5112   84.2201    9.7085 N.ar    1  UNL1       -0.0773
      6 C          60.2208   88.4615    8.4359 C.ar    1  UNL1        0.1387
      7 C          61.1734   88.7676    9.5534 C.ar    1  UNL1        0.0370
      8 C          61.9462   87.6593   10.2049 C.ar    1  UNL1        0.0047
      9 C          61.7664   86.2450    9.7390 C.ar    1  UNL1        0.0211
     10 C          60.8138   85.9388    8.6215 C.ar    1  UNL1        0.0047
     11 C          60.0410   87.0471    7.9699 C.ar    1  UNL1        0.0370
     12 C          59.3209   89.6181    6.2905 C.3     1  UNL1        0.2525
     13 O          59.4480   89.5698    7.7843 O.3     1  UNL1       -0.4714
     14 C          63.6576   82.8911   13.3523 C.3     1  UNL1        0.1583
     15 N          64.5516   83.5142   14.3830 N.3     1  UNL1       -0.1716
     16 H          65.4810   83.5767   13.9675 H       1  UNL1        0.1493
     17 S          64.2303   84.8727   14.9319 S.O2    1  UNL1        0.0606
     18 O          65.5925   85.3566   14.5318 O.2     1  UNL1       -0.1530
     19 O          62.8680   84.3888   15.3320 O.2     1  UNL1       -0.1530
     20 C          63.9089   86.2312   15.4808 C.ar    1  UNL1        0.1220
     21 C          64.3067   87.4610   14.7197 C.ar    1  UNL1        0.0199
     22 C          63.9852   88.8194   15.2687 C.ar    1  UNL1        0.0014
     23 C          63.2660   88.9479   16.5788 C.ar    1  UNL1        0.0001
     24 C          62.8682   87.7181   17.3398 C.ar    1  UNL1        0.0014
     25 C          63.1897   86.3597   16.7908 C.ar    1  UNL1        0.0199
@<TRIPOS>BOND
     1    12    13    1
     2    13     6    1
     3     6     7   ar
     4     7     8   ar
     5     8     9   ar
     6     9     1    1
     7     1     2   ar
     8     2     3   ar
     9     3    14    1
    10    14    15    1
    11    15    17    1
    12    17    18    2
    13    17    19    2
    14    17    20    1
    15    20    21   ar
    16    21    22   ar
    17    22    23   ar
    18    23    24   ar
    19    24    25   ar
    20     3     4   ar
    21     4     5   ar
    22     9    10   ar
    23    10    11   ar
    24    11     6   ar
    25     5     1   ar
    26    25    20   ar
    27    15    16    1
@<TRIPOS>MOLECULE
*****
 25 27 0 0 0
SMALL
GASTEIGER

@<TRIPOS>ATOM
      1 C          62.9420   84.4586   10.7540 C.ar    1  UNL1        0.1227
      2 C          62.9538   84.0026   12.1829 C.ar    1  UNL1        0.0595
      3 C          63.9377   82.8766   12.3021 C.ar    1  UNL1        0.1719
      4 O          64.5340   82.6367   10.9468 O.2     1  UNL1       -0.3563
      5 N          63.9187   83.6145    9.9900 N.ar    1  UNL1       -0.0773
      6 C          60.4198   87.7765    9.0570 C.ar    1  UNL1        0.1387
      7 C          60.5178   87.5936   10.5425 C.ar    1  UNL1        0.0370
      8 C          61.3586   86.4877   11.1082 C.ar    1  UNL1        0.0047
      9 C          62.1013   85.5646   10.1883 C.ar    1  UNL1        0.0211
     10 C          62.0032   85.7474    8.7028 C.ar    1  UNL1        0.0047
     11 C          61.1625   86.8534    8.1371 C.ar    1  UNL1        0.0370
     12 C          59.2765   88.9185    7.0226 C.3     1  UNL1        0.2525
     13 O          59.5790   88.8825    8.4913 O.3     1  UNL1       -0.4714
     14 C          64.2673   82.1229   13.5564 C.3     1  UNL1        0.1583
     15 N          63.7294   82.5911   14.8760 N.3     1  UNL1       -0.1716
     16 H          64.2920   82.1427   15.5991 H       1  UNL1        0.1493
     17 S          63.6997   84.0561   15.1966 S.O2    1  UNL1        0.0606
     18 O          62.2473   83.9482   15.5553 O.2     1  UNL1       -0.1530
     19 O          65.1522   84.1640   14.8378 O.2     1  UNL1       -0.1530
     20 C          63.6701   85.5212   15.5171 C.ar    1  UNL1        0.1220
     21 C          63.0250   85.9989   16.7842 C.ar    1  UNL1        0.0199
     22 C          62.9955   87.4639   17.1047 C.ar    1  UNL1        0.0014
     23 C          63.6111   88.4513   16.1580 C.ar    1  UNL1        0.0001
     24 C          64.2562   87.9736   14.8909 C.ar    1  UNL1        0.0014
     25 C          64.2857   86.5085   14.5705 C.ar    1  UNL1        0.0199
@<TRIPOS>BOND
     1    12    13    1
     2    13     6    1
     3     6     7   ar
     4     7     8   ar
     5     8     9   ar
     6     9     1    1
     7     1     2   ar
     8     2     3   ar
     9     3    14    1
    10    14    15    1
    11    15    17    1
    12    17    18    2
    13    17    19    2
    14    17    20    1
    15    20    21   ar
    16    21    22   ar
    17    22    23   ar
    18    23    24   ar
    19    24    25   ar
    20     3     4   ar
    21     4     5   ar
    22     9    10   ar
    23    10    11   ar
    24    11     6   ar
    25     5     1   ar
    26    25    20   ar
    27    15    16    1
@<TRIPOS>MOLECULE
*****
 25 27 0 0 0
SMALL
GASTEIGER

@<TRIPOS>ATOM
      1 C          64.5012   90.2308   13.1824 C.ar    1  UNL1        0.1227
      2 C          64.7345   89.5475   14.4972 C.ar    1  UNL1        0.0595
      3 C          63.9896   88.2456   14.4817 C.ar    1  UNL1        0.1719
      4 O          63.2959   88.1243   13.1573 O.2     1  UNL1       -0.3563
      5 N          63.6121   89.3511   12.3543 N.ar    1  UNL1       -0.0773
      6 C          66.1748   94.2190   11.9403 C.ar    1  UNL1        0.1387
      7 C          66.4195   93.7019   13.3269 C.ar    1  UNL1        0.0370
      8 C          65.8617   92.3725   13.7409 C.ar    1  UNL1        0.0047
      9 C          65.0590   91.5602   12.7684 C.ar    1  UNL1        0.0211
     10 C          64.8143   92.0773   11.3818 C.ar    1  UNL1        0.0047
     11 C          65.3721   93.4067   10.9678 C.ar    1  UNL1        0.0370
     12 C          65.8586   96.5410   10.8185 C.3     1  UNL1        0.2525
     13 O          66.7326   95.5485   11.5263 O.3     1  UNL1       -0.4714
     14 C          63.9460   87.2414   15.5951 C.3     1  UNL1        0.1583
     15 N          64.7080   85.9550   15.4751 N.3     1  UNL1       -0.1716
     16 H          64.9312   85.6553   16.4241 H       1  UNL1        0.1493
     17 S          64.0873   84.7774   14.7838 S.O2    1  UNL1        0.0606
     18 O          65.4191   84.4226   14.1920 O.2     1  UNL1       -0.1530
     19 O          62.7553   85.1322   15.3756 O.2     1  UNL1       -0.1530
     20 C          63.4664   83.5998   14.0926 C.ar    1  UNL1        0.1220
     21 C          62.4170   82.7873   14.7916 C.ar    1  UNL1        0.0199
     22 C          61.7962   81.6097   14.1003 C.ar    1  UNL1        0.0014
     23 C          62.2249   81.2446   12.7099 C.ar    1  UNL1        0.0001
     24 C          63.2743   82.0571   12.0109 C.ar    1  UNL1        0.0014
     25 C          63.8950   83.2346   12.7022 C.ar    1  UNL1        0.0199
@<TRIPOS>BOND
     1    12    13    1
     2    13     6    1
     3     6     7   ar
     4     7     8   ar
     5     8     9   ar
     6     9     1    1
     7     1     2   ar
     8     2     3   ar
     9     3    14    1
    10    14    15    1
    11    15    17    1
    12    17    18    2
    13    17    19    2
    14    17    20    1
    15    20    21   ar
    16    21    22   ar
    17    22    23   ar
    18    23    24   ar
    19    24    25   ar
    20     3     4   ar
    21     4     5   ar
    22     9    10   ar
    23    10    11   ar
    24    11     6   ar
    25     5     1   ar
    26    25    20   ar
    27    15    16    1
@<TRIPOS>MOLECULE
*****
 25 27 0 0 0
SMALL
GASTEIGER

@<TRIPOS>ATOM
      1 C          59.9388   91.8269    4.2040 C.ar    1  UNL1        0.1227
      2 C          60.3880   90.7185    5.1093 C.ar    1  UNL1        0.0595
      3 C          59.2090   90.2813    5.9271 C.ar    1  UNL1        0.1719
      4 O          58.0311   91.1196    5.5273 O.2     1  UNL1       -0.3563
      5 N          58.4821   92.0748    4.4623 N.ar    1  UNL1       -0.0773
      6 C          62.5096   94.0229    1.2344 C.ar    1  UNL1        0.1387
      7 C          61.0925   94.4571    1.4651 C.ar    1  UNL1        0.0370
      8 C          60.2356   93.7251    2.4550 C.ar    1  UNL1        0.0047
      9 C          60.7957   92.5589    3.2141 C.ar    1  UNL1        0.0211
     10 C          62.2128   92.1248    2.9833 C.ar    1  UNL1        0.0047
     11 C          63.0698   92.8568    1.9935 C.ar    1  UNL1        0.0370
     12 C          64.8491   94.5278    0.2235 C.3     1  UNL1        0.2525
     13 O          63.3666   94.7549    0.2445 O.3     1  UNL1       -0.4714
     14 C          59.2081   89.1964    6.9630 C.3     1  UNL1        0.1583
     15 N          59.9783   89.3758    8.2376 N.3     1  UNL1       -0.1716
     16 H          59.3203   89.7300    8.9318 H       1  UNL1        0.1493
     17 S          60.6783   88.2053    8.8619 S.O2    1  UNL1        0.0606
     18 O          59.8568   87.2685    8.0268 O.2     1  UNL1       -0.1530
     19 O          61.4998   89.1422    9.6972 O.2     1  UNL1       -0.1530
     20 C          61.3784   87.0348    9.4864 C.ar    1  UNL1        0.1220
     21 C          61.1872   86.7369   10.9440 C.ar    1  UNL1        0.0199
     22 C          61.8873   85.5664   11.5684 C.ar    1  UNL1        0.0014
     23 C          62.7787   84.6939   10.7351 C.ar    1  UNL1        0.0001
     24 C          62.9699   84.9919    9.2775 C.ar    1  UNL1        0.0014
     25 C          62.2697   86.1624    8.6532 C.ar    1  UNL1        0.0199
@<TRIPOS>BOND
     1    12    13    1
     2    13     6    1
     3     6     7   ar
     4     7     8   ar
     5     8     9   ar
     6     9     1    1
     7     1     2   ar
     8     2     3   ar
     9     3    14    1
    10    14    15    1
    11    15    17    1
    12    17    18    2
    13    17    19    2
    14    17    20    1
    15    20    21   ar
    16    21    22   ar
    17    22    23   ar
    18    23    24   ar
    19    24    25   ar
    20     3     4   ar
    21     4     5   ar
    22     9    10   ar
    23    10    11   ar
    24    11     6   ar
    25     5     1   ar
    26    25    20   ar
    27    15    16    1
@<TRIPOS>MOLECULE
*****
 25 27 0 0 0
SMALL
GASTEIGER

@<TRIPOS>ATOM
      1 C          62.5508   85.2184   10.3741 C.ar    1  UNL1        0.1227
      2 C          62.5282   84.2720   11.5376 C.ar    1  UNL1        0.0595
      3 C          63.3283   83.0593   11.1643 C.ar    1  UNL1        0.1719
      4 O          63.8453   83.2562    9.7701 O.2     1  UNL1       -0.3563
      5 N          63.3648   84.5906    9.2818 N.ar    1  UNL1       -0.0773
      6 C          60.5312   89.2356   10.1926 C.ar    1  UNL1        0.1387
      7 C          61.2600   88.8180   11.4354 C.ar    1  UNL1        0.0370
      8 C          61.9332   87.4790   11.4959 C.ar    1  UNL1        0.0047
      9 C          61.8776   86.5575   10.3136 C.ar    1  UNL1        0.0211
     10 C          61.1488   86.9751    9.0709 C.ar    1  UNL1        0.0047
     11 C          60.4756   88.3141    9.0104 C.ar    1  UNL1        0.0370
     12 C          59.1406   91.1086   11.3364 C.3     1  UNL1        0.2525
     13 O          59.8579   90.5747   10.1321 O.3     1  UNL1       -0.4714
     14 C          63.5690   81.8602   12.0328 C.3     1  UNL1        0.1583
     15 N          64.1736   82.0300   13.3950 N.3     1  UNL1       -0.1716
     16 H          65.1830   81.9348   13.2831 H       1  UNL1        0.1493
     17 S          63.9409   83.2952   14.1664 S.O2    1  UNL1        0.0606
     18 O          62.6605   82.7306   14.7063 O.2     1  UNL1       -0.1530
     19 O          65.2214   83.8599   13.6264 O.2     1  UNL1       -0.1530
     20 C          63.7083   84.5605   14.9378 C.ar    1  UNL1        0.1220
     21 C          64.4141   85.8225   14.5391 C.ar    1  UNL1        0.0199
     22 C          64.1814   87.0877   15.3105 C.ar    1  UNL1        0.0014
     23 C          63.2429   87.0908   16.4807 C.ar    1  UNL1        0.0001
     24 C          62.5371   85.8288   16.8794 C.ar    1  UNL1        0.0014
     25 C          62.7698   84.5636   16.1079 C.ar    1  UNL1        0.0199
@<TRIPOS>BOND
     1    12    13    1
     2    13     6    1
     3     6     7   ar
     4     7     8   ar
     5     8     9   ar
     6     9     1    1
     7     1     2   ar
     8     2     3   ar
     9     3    14    1
    10    14    15    1
    11    15    17    1
    12    17    18    2
    13    17    19    2
    14    17    20    1
    15    20    21   ar
    16    21    22   ar
    17    22    23   ar
    18    23    24   ar
    19    24    25   ar
    20     3     4   ar
    21     4     5   ar
    22     9    10   ar
    23    10    11   ar
    24    11     6   ar
    25     5     1   ar
    26    25    20   ar
    27    15    16    1
