@<TRIPOS>MOLECULE
*****
 31 33 0 0 0
SMALL
GASTEIGER

@<TRIPOS>ATOM
      1 C          62.2444   88.2651   11.4666 C.ar    1  UNL1        0.0577
      2 C          63.1751   88.2799   12.6428 C.ar    1  UNL1        0.0462
      3 C          63.9924   89.5029   12.9371 C.ar    1  UNL1        0.1602
      4 F          64.9232   89.5176   14.1133 F       1  UNL1       -0.2027
      5 C          63.8789   90.7109   12.0553 C.ar    1  UNL1        0.1534
      6 C          62.9481   90.6961   10.8791 C.ar    1  UNL1        0.0351
      7 C          62.1309   89.4733   10.5847 C.ar    1  UNL1        0.0722
      8 CL         61.2001   89.4585    9.4085 Cl      1  UNL1       -0.0809
      9 S          64.6962   91.9338   12.3497 S.O2    1  UNL1        0.0772
     10 O          64.2279   91.9038   13.7743 O.2     1  UNL1       -0.1498
     11 O          65.1645   91.9637   10.9250 O.2     1  UNL1       -0.1498
     12 N          65.5135   93.1567   12.6441 N.pl3   1  UNL1       -0.1936
     13 H          65.3197   94.0021   12.1784 H       1  UNL1        0.1758
     14 C          66.6260   93.0913   13.6481 C.ar    1  UNL1        0.1786
     15 N          66.8247   94.0241   14.8059 N.ar    1  UNL1       -0.2214
     16 C          68.0567   93.5910   15.5439 C.ar    1  UNL1        0.1079
     17 C          68.6194   92.3906   14.8422 C.ar    1  UNL1        0.0588
     18 S          67.7353   92.0818   13.6705 S.2     1  UNL1       -0.0497
     19 N          61.4271   87.0423   11.1722 N.pl3   1  UNL1       -0.3319
     20 H          60.7448   87.0653   10.4628 H       1  UNL1        0.1468
     21 C          61.6493   85.7845   11.9586 C.3     1  UNL1        0.0894
     22 C          63.3440   83.8832   12.4716 C.3     1  UNL1        0.1166
     23 O          64.3398   82.8673   11.9957 O.3     1  UNL1       -0.3562
     24 C          64.6367   82.7368   10.5312 C.3     1  UNL1        0.1421
     25 C          63.9378   83.6222    9.5425 C.3     1  UNL1        0.0322
     26 C          62.9420   84.6381   10.0183 C.3     1  UNL1        0.0067
     27 C          62.6452   84.7685   11.4828 C.3     1  UNL1        0.0468
     28 C          63.9717   85.1920   14.0185 C.3     1  UNL1        0.0024
     29 C          63.0472   84.0136   13.9361 C.3     1  UNL1        0.0251
     30 C          62.1226   82.8353   13.8537 C.3     1  UNL1        0.0024
     31 C          62.7503   84.1441   15.4006 C.3     1  UNL1        0.0024
@<TRIPOS>BOND
     1    28    29    1
     2    29    30    1
     3    29    31    1
     4    22    29    1
     5    22    23    1
     6    23    24    1
     7    24    25    1
     8    25    26    1
     9    26    27    1
    10    27    21    1
    11    21    19    1
    12    19     1    1
    13     1     2   ar
    14     2     3   ar
    15     3     4    1
    16     3     5   ar
    17     5     9    1
    18     9    10    2
    19     9    11    2
    20     9    12    1
    21    12    14    1
    22    14    15   ar
    23    15    16   ar
    24    16    17   ar
    25    17    18   ar
    26     5     6   ar
    27     6     7   ar
    28     7     8    1
    29    27    22    1
    30     7     1   ar
    31    18    14   ar
    32    19    20    1
    33    12    13    1
@<TRIPOS>MOLECULE
*****
 31 33 0 0 0
SMALL
GASTEIGER

@<TRIPOS>ATOM
      1 C          62.2221   88.3930   11.4261 C.ar    1  UNL1        0.0577
      2 C          63.1800   88.5122   12.5743 C.ar    1  UNL1        0.0462
      3 C          63.9902   89.7625   12.7484 C.ar    1  UNL1        0.1602
      4 F          64.9481   89.8816   13.8966 F       1  UNL1       -0.2027
      5 C          63.8426   90.8936   11.7743 C.ar    1  UNL1        0.1534
      6 C          62.8848   90.7744   10.6262 C.ar    1  UNL1        0.0351
      7 C          62.0745   89.5242   10.4520 C.ar    1  UNL1        0.0722
      8 CL         61.1167   89.4050    9.3038 Cl      1  UNL1       -0.0809
      9 S          64.6528   92.1438   11.9485 S.O2    1  UNL1        0.0772
     10 O          64.8749   92.2064   10.4664 O.2     1  UNL1       -0.1498
     11 O          64.4308   92.0812   13.4306 O.2     1  UNL1       -0.1498
     12 N          65.4631   93.3941   12.1226 N.pl3   1  UNL1       -0.1936
     13 H          65.3882   93.9176   12.9530 H       1  UNL1        0.1758
     14 C          66.3875   93.8468   11.0314 C.ar    1  UNL1        0.1786
     15 N          67.5543   93.0765   10.4882 N.ar    1  UNL1       -0.2214
     16 C          68.1953   93.9029    9.4129 C.ar    1  UNL1        0.1079
     17 C          67.4246   95.1840    9.2916 C.ar    1  UNL1        0.0588
     18 S          66.3073   95.1494   10.2918 S.2     1  UNL1       -0.0497
     19 N          61.4119   87.1428   11.2519 N.pl3   1  UNL1       -0.3319
     20 H          60.6847   87.1158   10.5889 H       1  UNL1        0.1468
     21 C          61.7096   85.9335   12.0880 C.3     1  UNL1        0.0894
     22 C          63.4124   84.0306   12.5672 C.3     1  UNL1        0.1166
     23 O          64.3758   82.9939   12.0701 O.3     1  UNL1       -0.3562
     24 C          64.5996   82.8232   10.5968 C.3     1  UNL1        0.1421
     25 C          63.8602   83.6893    9.6205 C.3     1  UNL1        0.0322
     26 C          62.8969   84.7260   10.1176 C.3     1  UNL1        0.0067
     27 C          62.6730   84.8967   11.5910 C.3     1  UNL1        0.0468
     28 C          64.1383   85.3623   14.0504 C.3     1  UNL1        0.0024
     29 C          63.1885   84.2013   14.0406 C.3     1  UNL1        0.0251
     30 C          62.2388   83.0403   14.0307 C.3     1  UNL1        0.0024
     31 C          62.9646   84.3720   15.5139 C.3     1  UNL1        0.0024
@<TRIPOS>BOND
     1    28    29    1
     2    29    30    1
     3    29    31    1
     4    22    29    1
     5    22    23    1
     6    23    24    1
     7    24    25    1
     8    25    26    1
     9    26    27    1
    10    27    21    1
    11    21    19    1
    12    19     1    1
    13     1     2   ar
    14     2     3   ar
    15     3     4    1
    16     3     5   ar
    17     5     9    1
    18     9    10    2
    19     9    11    2
    20     9    12    1
    21    12    14    1
    22    14    15   ar
    23    15    16   ar
    24    16    17   ar
    25    17    18   ar
    26     5     6   ar
    27     6     7   ar
    28     7     8    1
    29    27    22    1
    30     7     1   ar
    31    18    14   ar
    32    19    20    1
    33    12    13    1
@<TRIPOS>MOLECULE
*****
 31 33 0 0 0
SMALL
GASTEIGER

@<TRIPOS>ATOM
      1 C          63.8368   88.7741   14.9781 C.ar    1  UNL1        0.0577
      2 C          64.0318   87.8928   13.7801 C.ar    1  UNL1        0.0462
      3 C          63.8118   86.4134   13.8935 C.ar    1  UNL1        0.1602
      4 F          64.0068   85.5321   12.6954 F       1  UNL1       -0.2027
      5 C          63.3968   85.8152   15.2049 C.ar    1  UNL1        0.1534
      6 C          63.2018   86.6964   16.4030 C.ar    1  UNL1        0.0351
      7 C          63.4218   88.1759   16.2896 C.ar    1  UNL1        0.0722
      8 CL         63.2268   89.0571   17.4877 Cl      1  UNL1       -0.0809
      9 S          63.1767   84.3358   15.3183 S.O2    1  UNL1        0.0772
     10 O          61.6941   84.5594   15.3594 O.2     1  UNL1       -0.1498
     11 O          64.6594   84.1121   15.2772 O.2     1  UNL1       -0.1498
     12 N          62.9567   82.8563   15.4317 N.pl3   1  UNL1       -0.1936
     13 H          62.8785   82.4368   16.3189 H       1  UNL1        0.1758
     14 C          62.8557   82.0160   14.1932 C.ar    1  UNL1        0.1786
     15 N          62.7545   80.5201   14.1486 N.ar    1  UNL1       -0.2214
     16 C          62.6745   80.1037   12.7097 C.ar    1  UNL1        0.1079
     17 C          62.7263   81.3422   11.8652 C.ar    1  UNL1        0.0588
     18 S          62.8383   82.5242   12.7820 S.2     1  UNL1       -0.0497
     19 N          64.0568   90.2535   14.8648 N.pl3   1  UNL1       -0.3319
     20 H          63.3206   90.8771   15.0605 H       1  UNL1        0.1468
     21 C          65.3986   90.7828   14.4531 C.3     1  UNL1        0.0894
     22 C          66.7036   92.5209   13.0297 C.3     1  UNL1        0.1166
     23 O          66.8353   93.3408   11.7806 O.3     1  UNL1       -0.3562
     24 C          65.7937   93.2427   10.7057 C.3     1  UNL1        0.1421
     25 C          64.6203   92.3246   10.8800 C.3     1  UNL1        0.0322
     26 C          64.4887   91.5047   12.1291 C.3     1  UNL1        0.0067
     27 C          65.5303   91.6028   13.2040 C.3     1  UNL1        0.0468
     28 C          68.6093   91.6479   13.3560 C.3     1  UNL1        0.0024
     29 C          67.7453   92.6190   14.1046 C.3     1  UNL1        0.0251
     30 C          66.8813   93.5902   14.8532 C.3     1  UNL1        0.0024
     31 C          68.7870   92.7172   15.1794 C.3     1  UNL1        0.0024
@<TRIPOS>BOND
     1    28    29    1
     2    29    30    1
     3    29    31    1
     4    22    29    1
     5    22    23    1
     6    23    24    1
     7    24    25    1
     8    25    26    1
     9    26    27    1
    10    27    21    1
    11    21    19    1
    12    19     1    1
    13     1     2   ar
    14     2     3   ar
    15     3     4    1
    16     3     5   ar
    17     5     9    1
    18     9    10    2
    19     9    11    2
    20     9    12    1
    21    12    14    1
    22    14    15   ar
    23    15    16   ar
    24    16    17   ar
    25    17    18   ar
    26     5     6   ar
    27     6     7   ar
    28     7     8    1
    29    27    22    1
    30     7     1   ar
    31    18    14   ar
    32    19    20    1
    33    12    13    1
@<TRIPOS>MOLECULE
*****
 31 33 0 0 0
SMALL
GASTEIGER

@<TRIPOS>ATOM
      1 C          63.5583   89.2870   14.1791 C.ar    1  UNL1        0.0577
      2 C          63.6004   88.3101   13.0416 C.ar    1  UNL1        0.0462
      3 C          63.6694   86.8377   13.3197 C.ar    1  UNL1        0.1602
      4 F          63.7116   85.8608   12.1822 F       1  UNL1       -0.2027
      5 C          63.6963   86.3422   14.7353 C.ar    1  UNL1        0.1534
      6 C          63.6542   87.3191   15.8727 C.ar    1  UNL1        0.0351
      7 C          63.5852   88.7915   15.5947 C.ar    1  UNL1        0.0722
      8 CL         63.5431   89.7684   16.7322 Cl      1  UNL1       -0.0809
      9 S          63.7653   84.8699   15.0133 S.O2    1  UNL1        0.0772
     10 O          62.2930   84.8549   15.2993 O.2     1  UNL1       -0.1498
     11 O          65.2377   84.8848   14.7272 O.2     1  UNL1       -0.1498
     12 N          63.8343   83.3974   15.2913 N.pl3   1  UNL1       -0.1936
     13 H          64.2018   83.0745   16.1457 H       1  UNL1        0.1758
     14 C          63.3433   82.4171   14.2677 C.ar    1  UNL1        0.1786
     15 N          62.4520   81.2397   14.5308 N.ar    1  UNL1       -0.2214
     16 C          62.2153   80.5369   13.2269 C.ar    1  UNL1        0.1079
     17 C          62.9604   81.2800   12.1579 C.ar    1  UNL1        0.0588
     18 S          63.6576   82.4420   12.8011 S.2     1  UNL1       -0.0497
     19 N          63.4894   90.7594   13.9011 N.pl3   1  UNL1       -0.3319
     20 H          62.7029   91.2780   14.1870 H       1  UNL1        0.1468
     21 C          64.6186   91.4416   13.1874 C.3     1  UNL1        0.0894
     22 C          66.8798   92.7191   13.2589 C.3     1  UNL1        0.1166
     23 O          67.9902   93.3516   14.0443 O.3     1  UNL1       -0.3562
     24 C          67.9497   93.3394   15.5437 C.3     1  UNL1        0.1421
     25 C          66.7988   92.6946   16.2577 C.3     1  UNL1        0.0322
     26 C          65.6885   92.0620   15.4723 C.3     1  UNL1        0.0067
     27 C          65.7290   92.0742   13.9729 C.3     1  UNL1        0.0468
     28 C          67.9569   91.6472   11.7786 C.3     1  UNL1        0.0024
     29 C          66.9203   92.7313   11.7595 C.3     1  UNL1        0.0251
     30 C          65.8837   93.8153   11.7403 C.3     1  UNL1        0.0024
     31 C          66.9608   92.7435   10.2601 C.3     1  UNL1        0.0024
@<TRIPOS>BOND
     1    28    29    1
     2    29    30    1
     3    29    31    1
     4    22    29    1
     5    22    23    1
     6    23    24    1
     7    24    25    1
     8    25    26    1
     9    26    27    1
    10    27    21    1
    11    21    19    1
    12    19     1    1
    13     1     2   ar
    14     2     3   ar
    15     3     4    1
    16     3     5   ar
    17     5     9    1
    18     9    10    2
    19     9    11    2
    20     9    12    1
    21    12    14    1
    22    14    15   ar
    23    15    16   ar
    24    16    17   ar
    25    17    18   ar
    26     5     6   ar
    27     6     7   ar
    28     7     8    1
    29    27    22    1
    30     7     1   ar
    31    18    14   ar
    32    19    20    1
    33    12    13    1
@<TRIPOS>MOLECULE
*****
 31 33 0 0 0
SMALL
GASTEIGER

@<TRIPOS>ATOM
      1 C          63.1741   89.5738   12.3123 C.ar    1  UNL1        0.0577
      2 C          63.0997   90.4823   11.1210 C.ar    1  UNL1        0.0462
      3 C          64.0179   91.6644   11.0209 C.ar    1  UNL1        0.1602
      4 F          63.9435   92.5729    9.8296 F       1  UNL1       -0.2027
      5 C          65.0103   91.9378   12.1118 C.ar    1  UNL1        0.1534
      6 C          65.0846   91.0292   13.3031 C.ar    1  UNL1        0.0351
      7 C          64.1666   89.8473   13.4033 C.ar    1  UNL1        0.0722
      8 CL         64.2410   88.9387   14.5945 Cl      1  UNL1       -0.0809
      9 S          65.9283   93.1197   12.0116 S.O2    1  UNL1        0.0772
     10 O          65.4576   93.5991   13.3527 O.2     1  UNL1       -0.1498
     11 O          66.3991   92.6404   10.6705 O.2     1  UNL1       -0.1498
     12 N          66.8464   94.3018   11.9114 N.pl3   1  UNL1       -0.1936
     13 H          67.4721   94.5026   12.6445 H       1  UNL1        0.1758
     14 C          66.8111   95.1778   10.6943 C.ar    1  UNL1        0.1786
     15 N          67.8025   95.1638    9.5688 N.ar    1  UNL1       -0.2214
     16 C          67.3823   96.1990    8.5679 C.ar    1  UNL1        0.1079
     17 C          66.1311   96.8528    9.0748 C.ar    1  UNL1        0.0588
     18 S          65.7779   96.2217   10.3890 S.2     1  UNL1       -0.0497
     19 N          62.2561   88.3918   12.4125 N.pl3   1  UNL1       -0.3319
     20 H          61.5532   88.3715   13.1016 H       1  UNL1        0.1468
     21 C          62.4089   87.2408   11.4629 C.3     1  UNL1        0.0894
     22 C          61.6284   85.9511    9.3468 C.3     1  UNL1        0.1166
     23 O          60.7096   85.8244    8.1680 O.3     1  UNL1       -0.3562
     24 C          59.6523   86.8607    7.9263 C.3     1  UNL1        0.1421
     25 C          59.5139   88.0236    8.8635 C.3     1  UNL1        0.0322
     26 C          60.4327   88.1503   10.0423 C.3     1  UNL1        0.0067
     27 C          61.4900   87.1141   10.2840 C.3     1  UNL1        0.0468
     28 C          62.0965   84.6284   10.9378 C.3     1  UNL1        0.0024
     29 C          62.6857   84.9149    9.5884 C.3     1  UNL1        0.0251
     30 C          63.2749   85.2013    8.2391 C.3     1  UNL1        0.0024
     31 C          63.7429   83.8786    9.8301 C.3     1  UNL1        0.0024
@<TRIPOS>BOND
     1    28    29    1
     2    29    30    1
     3    29    31    1
     4    22    29    1
     5    22    23    1
     6    23    24    1
     7    24    25    1
     8    25    26    1
     9    26    27    1
    10    27    21    1
    11    21    19    1
    12    19     1    1
    13     1     2   ar
    14     2     3   ar
    15     3     4    1
    16     3     5   ar
    17     5     9    1
    18     9    10    2
    19     9    11    2
    20     9    12    1
    21    12    14    1
    22    14    15   ar
    23    15    16   ar
    24    16    17   ar
    25    17    18   ar
    26     5     6   ar
    27     6     7   ar
    28     7     8    1
    29    27    22    1
    30     7     1   ar
    31    18    14   ar
    32    19    20    1
    33    12    13    1
@<TRIPOS>MOLECULE
*****
 31 33 0 0 0
SMALL
GASTEIGER

@<TRIPOS>ATOM
      1 C          62.9263   89.6151   12.0746 C.ar    1  UNL1        0.0577
      2 C          63.5865   88.6279   12.9908 C.ar    1  UNL1        0.0462
      3 C          63.4089   87.1562   12.7610 C.ar    1  UNL1        0.1602
      4 F          64.0691   86.1690   13.6772 F       1  UNL1       -0.2027
      5 C          62.5712   86.6718   11.6149 C.ar    1  UNL1        0.1534
      6 C          61.9109   87.6591   10.6987 C.ar    1  UNL1        0.0351
      7 C          62.0885   89.1307   10.9285 C.ar    1  UNL1        0.0722
      8 CL         61.4282   90.1179   10.0123 Cl      1  UNL1       -0.0809
      9 S          62.3936   85.2003   11.3851 S.O2    1  UNL1        0.0772
     10 O          62.8697   85.3635    9.9721 O.2     1  UNL1       -0.1498
     11 O          61.9175   85.0370   12.7981 O.2     1  UNL1       -0.1498
     12 N          62.2161   83.7286   11.1552 N.pl3   1  UNL1       -0.1936
     13 H          61.7315   83.4095   10.3598 H       1  UNL1        0.1758
     14 C          62.7769   82.7431   12.1371 C.ar    1  UNL1        0.1786
     15 N          61.9954   81.7104   12.8939 N.ar    1  UNL1       -0.2214
     16 C          62.9532   80.9463   13.7592 C.ar    1  UNL1        0.1079
     17 C          64.3267   81.5068   13.5373 C.ar    1  UNL1        0.0588
     18 S          64.2179   82.6173   12.5348 S.2     1  UNL1       -0.0497
     19 N          63.1038   91.0867   12.3044 N.pl3   1  UNL1       -0.3319
     20 H          62.3990   91.6025   12.7588 H       1  UNL1        0.1468
     21 C          64.3552   91.7724   11.8420 C.3     1  UNL1        0.0894
     22 C          66.7185   92.7188   12.3607 C.3     1  UNL1        0.1166
     23 O          67.8812   92.8684   13.2964 O.3     1  UNL1       -0.3562
     24 C          67.8436   92.2211   14.6490 C.3     1  UNL1        0.1421
     25 C          66.6431   91.4243   15.0660 C.3     1  UNL1        0.0322
     26 C          65.4803   91.2747   14.1303 C.3     1  UNL1        0.0067
     27 C          65.5180   91.9220   12.7777 C.3     1  UNL1        0.0468
     28 C          67.4739   92.1704   10.4559 C.3     1  UNL1        0.0024
     29 C          66.7562   93.3661   11.0081 C.3     1  UNL1        0.0251
     30 C          66.0384   94.5619   11.5603 C.3     1  UNL1        0.0024
     31 C          66.7939   94.0134    9.6555 C.3     1  UNL1        0.0024
@<TRIPOS>BOND
     1    28    29    1
     2    29    30    1
     3    29    31    1
     4    22    29    1
     5    22    23    1
     6    23    24    1
     7    24    25    1
     8    25    26    1
     9    26    27    1
    10    27    21    1
    11    21    19    1
    12    19     1    1
    13     1     2   ar
    14     2     3   ar
    15     3     4    1
    16     3     5   ar
    17     5     9    1
    18     9    10    2
    19     9    11    2
    20     9    12    1
    21    12    14    1
    22    14    15   ar
    23    15    16   ar
    24    16    17   ar
    25    17    18   ar
    26     5     6   ar
    27     6     7   ar
    28     7     8    1
    29    27    22    1
    30     7     1   ar
    31    18    14   ar
    32    19    20    1
    33    12    13    1
@<TRIPOS>MOLECULE
*****
 31 33 0 0 0
SMALL
GASTEIGER

@<TRIPOS>ATOM
      1 C          63.5094   88.9764   13.0679 C.ar    1  UNL1        0.0577
      2 C          64.1165   88.5943   14.3852 C.ar    1  UNL1        0.0462
      3 C          64.2331   87.1480   14.7660 C.ar    1  UNL1        0.1602
      4 F          64.8402   86.7659   16.0833 F       1  UNL1       -0.2027
      5 C          63.7425   86.0840   13.8294 C.ar    1  UNL1        0.1534
      6 C          63.1353   86.4662   12.5121 C.ar    1  UNL1        0.0351
      7 C          63.0188   87.9123   12.1313 C.ar    1  UNL1        0.0722
      8 CL         62.4116   88.2945   10.8140 Cl      1  UNL1       -0.0809
      9 S          63.8590   84.6379   14.2102 S.O2    1  UNL1        0.0772
     10 O          65.3406   84.6977   13.9836 O.2     1  UNL1       -0.1498
     11 O          62.3775   84.5781   14.4367 O.2     1  UNL1       -0.1498
     12 N          63.9756   83.1917   14.5909 N.pl3   1  UNL1       -0.1936
     13 H          64.3933   82.9399   15.4462 H       1  UNL1        0.1758
     14 C          63.4559   82.1290   13.6686 C.ar    1  UNL1        0.1786
     15 N          62.8206   80.8351   14.0834 N.ar    1  UNL1       -0.2214
     16 C          62.4523   80.0801   12.8407 C.ar    1  UNL1        0.1079
     17 C          62.8599   80.9075   11.6578 C.ar    1  UNL1        0.0588
     18 S          63.4802   82.1738   12.1694 S.2     1  UNL1       -0.0497
     19 N          63.3928   90.4226   12.6871 N.pl3   1  UNL1       -0.3319
     20 H          62.5202   90.8757   12.7363 H       1  UNL1        0.1468
     21 C          64.6058   91.1783   12.2316 C.3     1  UNL1        0.0894
     22 C          66.6084   92.7429   12.7717 C.3     1  UNL1        0.1166
     23 O          67.4784   93.4400   13.7752 O.3     1  UNL1       -0.3562
     24 C          67.2158   93.2697   15.2422 C.3     1  UNL1        0.1421
     25 C          66.0832   92.4023   15.7056 C.3     1  UNL1        0.0322
     26 C          65.2132   91.7052   14.7021 C.3     1  UNL1        0.0067
     27 C          65.4758   91.8755   13.2351 C.3     1  UNL1        0.0468
     28 C          65.8217   93.9831   11.2410 C.3     1  UNL1        0.0024
     29 C          66.8710   92.9132   11.3047 C.3     1  UNL1        0.0251
     30 C          67.9204   91.8432   11.3684 C.3     1  UNL1        0.0024
     31 C          67.1337   93.0834    9.8377 C.3     1  UNL1        0.0024
@<TRIPOS>BOND
     1    28    29    1
     2    29    30    1
     3    29    31    1
     4    22    29    1
     5    22    23    1
     6    23    24    1
     7    24    25    1
     8    25    26    1
     9    26    27    1
    10    27    21    1
    11    21    19    1
    12    19     1    1
    13     1     2   ar
    14     2     3   ar
    15     3     4    1
    16     3     5   ar
    17     5     9    1
    18     9    10    2
    19     9    11    2
    20     9    12    1
    21    12    14    1
    22    14    15   ar
    23    15    16   ar
    24    16    17   ar
    25    17    18   ar
    26     5     6   ar
    27     6     7   ar
    28     7     8    1
    29    27    22    1
    30     7     1   ar
    31    18    14   ar
    32    19    20    1
    33    12    13    1
@<TRIPOS>MOLECULE
*****
 31 33 0 0 0
SMALL
GASTEIGER

@<TRIPOS>ATOM
      1 C          63.4475   89.1630   14.5695 C.ar    1  UNL1        0.0577
      2 C          63.5299   88.5604   15.9407 C.ar    1  UNL1        0.0462
      3 C          63.6785   87.0762   16.0999 C.ar    1  UNL1        0.1602
      4 F          63.7609   86.4736   17.4710 F       1  UNL1       -0.2027
      5 C          63.7447   86.1948   14.8880 C.ar    1  UNL1        0.1534
      6 C          63.6623   86.7975   13.5169 C.ar    1  UNL1        0.0351
      7 C          63.5137   88.2815   13.3576 C.ar    1  UNL1        0.0722
      8 CL         63.4313   88.8842   11.9865 Cl      1  UNL1       -0.0809
      9 S          63.8934   84.7108   15.0473 S.O2    1  UNL1        0.0772
     10 O          65.3606   84.8266   14.7580 O.2     1  UNL1       -0.1498
     11 O          62.4261   84.5949   15.3365 O.2     1  UNL1       -0.1498
     12 N          64.0420   83.2266   15.2065 N.pl3   1  UNL1       -0.1936
     13 H          64.5333   82.8610   15.9774 H       1  UNL1        0.1758
     14 C          63.4421   82.2996   14.1913 C.ar    1  UNL1        0.1786
     15 N          62.4392   81.2190   14.4679 N.ar    1  UNL1       -0.2214
     16 C          62.1171   80.5419   13.1687 C.ar    1  UNL1        0.1079
     17 C          62.9209   81.2040   12.0892 C.ar    1  UNL1        0.0588
     18 S          63.7399   82.2903   12.7211 S.2     1  UNL1       -0.0497
     19 N          63.2989   90.6471   14.4103 N.pl3   1  UNL1       -0.3319
     20 H          62.4124   91.0368   14.2326 H       1  UNL1        0.1468
     21 C          64.5009   91.5375   14.5216 C.3     1  UNL1        0.0894
     22 C          66.6418   92.4590   13.3739 C.3     1  UNL1        0.1166
     23 O          67.3638   92.9026   12.1362 O.3     1  UNL1       -0.3562
     24 C          66.6667   92.8683   10.8084 C.3     1  UNL1        0.1421
     25 C          65.2478   92.3904   10.7184 C.3     1  UNL1        0.0322
     26 C          64.5259   91.9468   11.9561 C.3     1  UNL1        0.0067
     27 C          65.2229   91.9811   13.2839 C.3     1  UNL1        0.0468
     28 C          67.6343   91.0274   14.5845 C.3     1  UNL1        0.0024
     29 C          67.3388   92.4934   14.7017 C.3     1  UNL1        0.0251
     30 C          67.0434   93.9593   14.8189 C.3     1  UNL1        0.0024
     31 C          68.0358   92.5277   16.0295 C.3     1  UNL1        0.0024
@<TRIPOS>BOND
     1    28    29    1
     2    29    30    1
     3    29    31    1
     4    22    29    1
     5    22    23    1
     6    23    24    1
     7    24    25    1
     8    25    26    1
     9    26    27    1
    10    27    21    1
    11    21    19    1
    12    19     1    1
    13     1     2   ar
    14     2     3   ar
    15     3     4    1
    16     3     5   ar
    17     5     9    1
    18     9    10    2
    19     9    11    2
    20     9    12    1
    21    12    14    1
    22    14    15   ar
    23    15    16   ar
    24    16    17   ar
    25    17    18   ar
    26     5     6   ar
    27     6     7   ar
    28     7     8    1
    29    27    22    1
    30     7     1   ar
    31    18    14   ar
    32    19    20    1
    33    12    13    1
@<TRIPOS>MOLECULE
*****
 31 33 0 0 0
SMALL
GASTEIGER

@<TRIPOS>ATOM
      1 C          63.9450   89.0531   13.5048 C.ar    1  UNL1        0.0577
      2 C          65.0145   89.5697   14.4209 C.ar    1  UNL1        0.0462
      3 C          65.6475   90.9039   14.1574 C.ar    1  UNL1        0.1602
      4 F          66.7170   91.4206   15.0735 F       1  UNL1       -0.2027
      5 C          65.2109   91.7214   12.9780 C.ar    1  UNL1        0.1534
      6 C          64.1414   91.2047   12.0620 C.ar    1  UNL1        0.0351
      7 C          63.5084   89.8706   12.3253 C.ar    1  UNL1        0.0722
      8 CL         62.4389   89.3540   11.4093 Cl      1  UNL1       -0.0809
      9 S          65.8439   93.0555   12.7146 S.O2    1  UNL1        0.0772
     10 O          65.6167   93.4457   14.1450 O.2     1  UNL1       -0.1498
     11 O          66.0711   92.6653   11.2842 O.2     1  UNL1       -0.1498
     12 N          66.4769   94.3897   12.4513 N.pl3   1  UNL1       -0.1936
     13 H          66.8113   94.9326   13.2014 H       1  UNL1        0.1758
     14 C          66.6004   94.8968   11.0450 C.ar    1  UNL1        0.1786
     15 N          67.6684   94.5186   10.0620 N.ar    1  UNL1       -0.2214
     16 C          67.4056   95.2591    8.7842 C.ar    1  UNL1        0.1079
     17 C          66.1752   96.0950    8.9776 C.ar    1  UNL1        0.0588
     18 S          65.6775   95.8711   10.3748 S.2     1  UNL1       -0.0497
     19 N          63.3120   87.7189   13.7682 N.pl3   1  UNL1       -0.3319
     20 H          62.6724   87.6153   14.5094 H       1  UNL1        0.1468
     21 C          63.6535   86.5427   12.9022 C.3     1  UNL1        0.0894
     22 C          62.8576   84.1577   12.2475 C.3     1  UNL1        0.1166
     23 O          62.4172   82.7803   12.6458 O.3     1  UNL1       -0.3562
     24 C          62.3321   82.4103   14.0969 C.3     1  UNL1        0.1421
     25 C          62.6875   83.4178   15.1499 C.3     1  UNL1        0.0322
     26 C          63.1280   84.7952   14.7516 C.3     1  UNL1        0.0067
     27 C          63.2130   85.1652   13.3004 C.3     1  UNL1        0.0468
     28 C          61.7813   85.4617   10.9664 C.3     1  UNL1        0.0024
     29 C          62.9427   84.5277   10.7964 C.3     1  UNL1        0.0251
     30 C          64.1040   83.5938   10.6263 C.3     1  UNL1        0.0024
     31 C          63.0277   84.8977    9.3452 C.3     1  UNL1        0.0024
@<TRIPOS>BOND
     1    28    29    1
     2    29    30    1
     3    29    31    1
     4    22    29    1
     5    22    23    1
     6    23    24    1
     7    24    25    1
     8    25    26    1
     9    26    27    1
    10    27    21    1
    11    21    19    1
    12    19     1    1
    13     1     2   ar
    14     2     3   ar
    15     3     4    1
    16     3     5   ar
    17     5     9    1
    18     9    10    2
    19     9    11    2
    20     9    12    1
    21    12    14    1
    22    14    15   ar
    23    15    16   ar
    24    16    17   ar
    25    17    18   ar
    26     5     6   ar
    27     6     7   ar
    28     7     8    1
    29    27    22    1
    30     7     1   ar
    31    18    14   ar
    32    19    20    1
    33    12    13    1
