@<TRIPOS>MOLECULE
*****
 36 40 0 0 0
SMALL
GASTEIGER

@<TRIPOS>ATOM
      1 C          60.3439   89.1322    8.8142 C.3     1  UNL1        0.0002
      2 C          59.4357   89.3955    7.6498 C.3     1  UNL1        0.0001
      3 C          59.6715   87.9887    8.1139 C.3     1  UNL1        0.0037
      4 N          63.0817   90.6567   12.0437 N.pl3   1  UNL1       -0.2782
      5 C          63.3297   91.0299   10.6123 C.3     1  UNL1        0.0936
      6 C          62.4171   90.5217    9.5358 C.3     1  UNL1        0.0216
      7 C          61.2565   89.6403    9.8907 C.3     1  UNL1        0.0034
      8 C          61.0085   89.2671   11.3221 C.3     1  UNL1        0.0216
      9 C          61.9211   89.7753   12.3987 C.3     1  UNL1        0.0936
     10 C          65.8195   92.1812   15.2733 C.ar    1  UNL1        0.0457
     11 C          66.1802   92.3762   13.8305 C.ar    1  UNL1        0.1015
     12 N          65.2676   91.8681   12.7540 N.ar    1  UNL1       -0.2123
     13 C          63.9943   91.1649   13.1203 C.ar    1  UNL1        0.2202
     14 N          63.6336   90.9699   14.5631 N.ar    1  UNL1       -0.2123
     15 C          64.5462   91.4780   15.6396 C.ar    1  UNL1        0.1015
     16 C          66.7321   92.6894   16.3499 C.3     1  UNL1        0.1718
     17 C          69.1220   93.4797   15.7068 C.3     1  UNL1        0.1746
     18 O          67.6977   93.7982   16.0529 O.3     1  UNL1       -0.3462
     19 C          59.4195   86.5164    7.9776 C.3     1  UNL1        0.0473
     20 C          60.4375   85.6398    7.3102 C.3     1  UNL1        0.2054
     21 O          61.8955   85.8181    7.6143 O.3     1  UNL1       -0.4753
     22 C          62.4536   85.3364    8.9207 C.ar    1  UNL1        0.1430
     23 C          62.1383   86.0736   10.1884 C.ar    1  UNL1        0.0663
     24 C          62.6963   85.5919   11.4947 C.ar    1  UNL1        0.1418
     25 F          62.3810   86.3292   12.7624 F       1  UNL1       -0.2043
     26 C          63.5697   84.3731   11.5333 C.ar    1  UNL1        0.0421
     27 C          63.8850   83.6358   10.2656 C.ar    1  UNL1        0.1418
     28 F          64.7584   82.4169   10.3043 F       1  UNL1       -0.2043
     29 C          63.3269   84.1175    8.9593 C.ar    1  UNL1        0.0663
     30 C          64.1278   83.8914   12.8397 C.3     1  UNL1        0.1160
     31 C          63.2269   83.2359   13.8440 C.2     1  UNL1        0.2302
     32 O          62.8191   83.9775   15.0825 O.2     1  UNL1       -0.2745
     33 N          62.7338   81.8387   13.6099 N.am    1  UNL1       -0.2791
     34 C          62.9193   80.8156   12.5288 C.3     1  UNL1        0.0952
     35 C          62.0364   79.8628   13.2790 C.3     1  UNL1        0.0430
     36 C          61.8509   80.8860   14.3601 C.3     1  UNL1        0.0952
@<TRIPOS>BOND
     1    17    18    1
     2    18    16    1
     3    16    10    1
     4    10    11   ar
     5    11    12   ar
     6    12    13   ar
     7    13     4    1
     8     4     5    1
     9     5     6    1
    10     6     7    1
    11     1     7    1
    12     1     2    1
    13     2     3    1
    14     3    19    1
    15    19    20    1
    16    20    21    1
    17    21    22    1
    18    22    23   ar
    19    23    24   ar
    20    24    25    1
    21    24    26   ar
    22    26    30    1
    23    30    31    1
    24    31    32    2
    25    31    33   am
    26    33    34    1
    27    34    35    1
    28    35    36    1
    29    26    27   ar
    30    27    28    1
    31    27    29   ar
    32     7     8    1
    33     8     9    1
    34    13    14   ar
    35    14    15   ar
    36    15    10   ar
    37     9     4    1
    38     3     1    1
    39    29    22   ar
    40    36    33    1
@<TRIPOS>MOLECULE
*****
 36 40 0 0 0
SMALL
GASTEIGER

@<TRIPOS>ATOM
      1 C          60.3201   89.0703    8.7375 C.3     1  UNL1        0.0002
      2 C          59.4062   89.3393    7.5789 C.3     1  UNL1        0.0001
      3 C          59.6841   87.9276    8.0029 C.3     1  UNL1        0.0037
      4 N          63.0046   90.5836   12.0167 N.pl3   1  UNL1       -0.2782
      5 C          61.8266   89.7176   12.3516 C.3     1  UNL1        0.0936
      6 C          60.9317   89.2131   11.2585 C.3     1  UNL1        0.0216
      7 C          61.2149   89.5747    9.8306 C.3     1  UNL1        0.0034
      8 C          62.3929   90.4408    9.4957 C.3     1  UNL1        0.0216
      9 C          63.2878   90.9452   10.5888 C.3     1  UNL1        0.0936
     10 C          65.6891   92.0969   15.2959 C.ar    1  UNL1        0.0457
     11 C          66.0877   92.2705   13.8603 C.ar    1  UNL1        0.1015
     12 N          65.1928   91.7661   12.7673 N.ar    1  UNL1       -0.2123
     13 C          63.8994   91.0881   13.1098 C.ar    1  UNL1        0.2202
     14 N          63.5009   90.9145   14.5454 N.ar    1  UNL1       -0.2123
     15 C          64.3957   91.4189   15.6384 C.ar    1  UNL1        0.1015
     16 C          66.5840   92.6014   16.3890 C.3     1  UNL1        0.1718
     17 C          68.9023   93.5825   15.7464 C.3     1  UNL1        0.1746
     18 O          68.0715   92.4490   16.2708 O.3     1  UNL1       -0.3462
     19 C          59.4774   86.4528    7.8235 C.3     1  UNL1        0.0473
     20 C          60.6071   85.5898    7.3448 C.3     1  UNL1        0.2054
     21 O          62.0024   85.8412    7.8343 O.3     1  UNL1       -0.4753
     22 C          62.4687   85.2250    9.1201 C.ar    1  UNL1        0.1430
     23 C          61.9310   85.7232   10.4288 C.ar    1  UNL1        0.0663
     24 C          62.3972   85.1070   11.7144 C.ar    1  UNL1        0.1418
     25 F          61.8596   85.6052   13.0232 F       1  UNL1       -0.2043
     26 C          63.4010   83.9927   11.6914 C.ar    1  UNL1        0.0421
     27 C          63.9386   83.4945   10.3826 C.ar    1  UNL1        0.1418
     28 F          64.9425   82.3801   10.3596 F       1  UNL1       -0.2043
     29 C          63.4725   84.1107    9.0970 C.ar    1  UNL1        0.0663
     30 C          63.8672   83.3764   12.9771 C.3     1  UNL1        0.1160
     31 C          62.9997   83.4436   14.1989 C.2     1  UNL1        0.2302
     32 O          61.9262   82.4183   14.4139 O.2     1  UNL1       -0.2745
     33 N          63.2058   84.5362   15.2057 N.am    1  UNL1       -0.2791
     34 C          64.1438   85.7000   15.3312 C.3     1  UNL1        0.0952
     35 C          63.4970   86.0814   16.6297 C.3     1  UNL1        0.0430
     36 C          62.5590   84.9176   16.5043 C.3     1  UNL1        0.0952
@<TRIPOS>BOND
     1    17    18    1
     2    18    16    1
     3    16    10    1
     4    10    11   ar
     5    11    12   ar
     6    12    13   ar
     7    13     4    1
     8     4     5    1
     9     5     6    1
    10     6     7    1
    11     1     7    1
    12     1     2    1
    13     2     3    1
    14     3    19    1
    15    19    20    1
    16    20    21    1
    17    21    22    1
    18    22    23   ar
    19    23    24   ar
    20    24    25    1
    21    24    26   ar
    22    26    30    1
    23    30    31    1
    24    31    32    2
    25    31    33   am
    26    33    34    1
    27    34    35    1
    28    35    36    1
    29    26    27   ar
    30    27    28    1
    31    27    29   ar
    32     7     8    1
    33     8     9    1
    34    13    14   ar
    35    14    15   ar
    36    15    10   ar
    37     9     4    1
    38     3     1    1
    39    29    22   ar
    40    36    33    1
@<TRIPOS>MOLECULE
*****
 36 40 0 0 0
SMALL
GASTEIGER

@<TRIPOS>ATOM
      1 C          63.0620   87.2992   16.9048 C.3     1  UNL1        0.0002
      2 C          62.5224   86.8453   18.2287 C.3     1  UNL1        0.0001
      3 C          62.7805   85.8450   17.1411 C.3     1  UNL1        0.0037
      4 N          64.4845   90.6043   14.2024 N.pl3   1  UNL1       -0.2782
      5 C          64.5617   89.1774   13.7467 C.3     1  UNL1        0.0936
      6 C          64.0875   88.0757   14.6475 C.3     1  UNL1        0.0216
      7 C          63.5362   88.4009   16.0040 C.3     1  UNL1        0.0034
      8 C          63.4590   89.8279   16.4597 C.3     1  UNL1        0.0216
      9 C          63.9332   90.9296   15.5590 C.3     1  UNL1        0.0936
     10 C          65.9069   93.9094   11.5000 C.ar    1  UNL1        0.0457
     11 C          66.3127   93.8943   12.9440 C.ar    1  UNL1        0.1015
     12 N          65.8385   92.7926   13.8448 N.ar    1  UNL1       -0.2123
     13 C          64.9586   91.7060   13.3016 C.ar    1  UNL1        0.2202
     14 N          64.5529   91.7212   11.8577 N.ar    1  UNL1       -0.2123
     15 C          65.0270   92.8229   10.9569 C.ar    1  UNL1        0.1015
     16 C          66.3811   95.0112   10.5993 C.3     1  UNL1        0.1718
     17 C          68.0784   93.6867    9.1450 C.3     1  UNL1        0.1746
     18 O          67.7218   94.9115    9.9342 O.3     1  UNL1       -0.3462
     19 C          62.7670   84.4279   16.6497 C.3     1  UNL1        0.0473
     20 C          62.0820   84.0880   15.3591 C.3     1  UNL1        0.2054
     21 O          62.8363   83.3786   14.2739 O.3     1  UNL1       -0.4753
     22 C          62.8944   83.9649   12.8944 C.ar    1  UNL1        0.1430
     23 C          62.4964   85.3935   12.6692 C.ar    1  UNL1        0.0663
     24 C          62.5545   85.9798   11.2898 C.ar    1  UNL1        0.1418
     25 F          62.1565   87.4084   11.0647 F       1  UNL1       -0.2043
     26 C          63.0105   85.1374   10.1355 C.ar    1  UNL1        0.0421
     27 C          63.4085   83.7088   10.3607 C.ar    1  UNL1        0.1418
     28 F          63.8646   82.8664    9.2063 F       1  UNL1       -0.2043
     29 C          63.3504   83.1225   11.7401 C.ar    1  UNL1        0.0663
     30 C          63.0686   85.7237    8.7560 C.3     1  UNL1        0.1160
     31 C          61.9117   85.5488    7.8175 C.2     1  UNL1        0.2302
     32 O          62.0083   84.5741    6.6814 O.2     1  UNL1       -0.2745
     33 N          60.6582   86.3486    8.0150 N.am    1  UNL1       -0.2791
     34 C          60.2047   87.3835    9.0016 C.3     1  UNL1        0.0952
     35 C          58.8854   87.4797    8.2943 C.3     1  UNL1        0.0430
     36 C          59.3390   86.4448    7.3076 C.3     1  UNL1        0.0952
@<TRIPOS>BOND
     1    17    18    1
     2    18    16    1
     3    16    10    1
     4    10    11   ar
     5    11    12   ar
     6    12    13   ar
     7    13     4    1
     8     4     5    1
     9     5     6    1
    10     6     7    1
    11     1     7    1
    12     1     2    1
    13     2     3    1
    14     3    19    1
    15    19    20    1
    16    20    21    1
    17    21    22    1
    18    22    23   ar
    19    23    24   ar
    20    24    25    1
    21    24    26   ar
    22    26    30    1
    23    30    31    1
    24    31    32    2
    25    31    33   am
    26    33    34    1
    27    34    35    1
    28    35    36    1
    29    26    27   ar
    30    27    28    1
    31    27    29   ar
    32     7     8    1
    33     8     9    1
    34    13    14   ar
    35    14    15   ar
    36    15    10   ar
    37     9     4    1
    38     3     1    1
    39    29    22   ar
    40    36    33    1
@<TRIPOS>MOLECULE
*****
 36 40 0 0 0
SMALL
GASTEIGER

@<TRIPOS>ATOM
      1 C          59.3699   90.8434    5.2713 C.3     1  UNL1        0.0002
      2 C          58.0324   90.5582    5.8874 C.3     1  UNL1        0.0001
      3 C          59.2499   89.8231    6.3643 C.3     1  UNL1        0.0037
      4 N          61.8945   93.1045    2.3109 N.pl3   1  UNL1       -0.2782
      5 C          60.4487   93.4615    2.4907 C.3     1  UNL1        0.0936
      6 C          59.6072   92.7078    3.4775 C.3     1  UNL1        0.0216
      7 C          60.2114   91.5971    4.2845 C.3     1  UNL1        0.0034
      8 C          61.6571   91.2401    4.1047 C.3     1  UNL1        0.0216
      9 C          62.4987   91.9938    3.1179 C.3     1  UNL1        0.0936
     10 C          64.4190   95.3656   -0.6495 C.ar    1  UNL1        0.0457
     11 C          63.0154   95.8119   -0.3655 C.ar    1  UNL1        0.1015
     12 N          62.1739   95.0582    0.6213 N.ar    1  UNL1       -0.2123
     13 C          62.7360   93.8582    1.3241 C.ar    1  UNL1        0.2202
     14 N          64.1396   93.4119    1.0401 N.ar    1  UNL1       -0.2123
     15 C          64.9811   94.1656    0.0533 C.ar    1  UNL1        0.1015
     16 C          65.2606   96.1193   -1.6363 C.3     1  UNL1        0.1718
     17 C          64.6288   94.8429   -3.8092 C.3     1  UNL1        0.1746
     18 O          64.8828   96.1333   -3.0878 O.3     1  UNL1       -0.3462
     19 C          59.8835   88.8097    7.2706 C.3     1  UNL1        0.0473
     20 C          59.9076   89.0402    8.7527 C.3     1  UNL1        0.2054
     21 O          61.2094   89.3041    9.4496 O.3     1  UNL1       -0.4753
     22 C          61.7921   88.2701   10.3669 C.ar    1  UNL1        0.1430
     23 C          62.6297   88.6926   11.5374 C.ar    1  UNL1        0.0663
     24 C          63.2124   87.6587   12.4547 C.ar    1  UNL1        0.1418
     25 F          64.0499   88.0812   13.6252 F       1  UNL1       -0.2043
     26 C          62.9575   86.2024   12.2016 C.ar    1  UNL1        0.0421
     27 C          62.1200   85.7799   11.0311 C.ar    1  UNL1        0.1418
     28 F          61.8651   84.3235   10.7780 F       1  UNL1       -0.2043
     29 C          61.5373   86.8138   10.1138 C.ar    1  UNL1        0.0663
     30 C          63.5402   85.1684   13.1189 C.3     1  UNL1        0.1160
     31 C          62.6347   84.2830   13.9226 C.2     1  UNL1        0.2302
     32 O          61.8212   84.8609   15.0425 O.2     1  UNL1       -0.2745
     33 N          62.5426   82.8197   13.6062 N.am    1  UNL1       -0.2791
     34 C          63.1792   81.9104   12.5973 C.3     1  UNL1        0.0952
     35 C          62.4122   80.7501   13.1590 C.3     1  UNL1        0.0430
     36 C          61.7756   81.6594   14.1680 C.3     1  UNL1        0.0952
@<TRIPOS>BOND
     1    17    18    1
     2    18    16    1
     3    16    10    1
     4    10    11   ar
     5    11    12   ar
     6    12    13   ar
     7    13     4    1
     8     4     5    1
     9     5     6    1
    10     6     7    1
    11     1     7    1
    12     1     2    1
    13     2     3    1
    14     3    19    1
    15    19    20    1
    16    20    21    1
    17    21    22    1
    18    22    23   ar
    19    23    24   ar
    20    24    25    1
    21    24    26   ar
    22    26    30    1
    23    30    31    1
    24    31    32    2
    25    31    33   am
    26    33    34    1
    27    34    35    1
    28    35    36    1
    29    26    27   ar
    30    27    28    1
    31    27    29   ar
    32     7     8    1
    33     8     9    1
    34    13    14   ar
    35    14    15   ar
    36    15    10   ar
    37     9     4    1
    38     3     1    1
    39    29    22   ar
    40    36    33    1
@<TRIPOS>MOLECULE
*****
 36 40 0 0 0
SMALL
GASTEIGER

@<TRIPOS>ATOM
      1 C          63.7116   83.4990   12.3493 C.3     1  UNL1        0.0002
      2 C          64.5239   82.2516   12.5338 C.3     1  UNL1        0.0001
      3 C          64.1699   83.0985   13.7202 C.3     1  UNL1        0.0037
      4 N          61.5106   86.3533    9.6551 N.pl3   1  UNL1       -0.2782
      5 C          62.5229   85.4080    9.0793 C.3     1  UNL1        0.0936
      6 C          63.2565   84.4565    9.9774 C.3     1  UNL1        0.0216
      7 C          62.9779   84.4504   11.4513 C.3     1  UNL1        0.0034
      8 C          61.9656   85.3957   12.0270 C.3     1  UNL1        0.0216
      9 C          61.2320   86.3472   11.1290 C.3     1  UNL1        0.0936
     10 C          59.3096   89.2076    6.9610 C.ar    1  UNL1        0.0457
     11 C          59.2576   87.7326    6.6935 C.ar    1  UNL1        0.1015
     12 N          59.9913   86.7812    7.5915 N.ar    1  UNL1       -0.2123
     13 C          60.7769   87.3047    8.7571 C.ar    1  UNL1        0.2202
     14 N          60.8290   88.7797    9.0246 N.ar    1  UNL1       -0.2123
     15 C          60.0953   89.7312    8.1265 C.ar    1  UNL1        0.1015
     16 C          58.5760   90.1590    6.0629 C.3     1  UNL1        0.1718
     17 C          58.6245   92.0796    4.3138 C.3     1  UNL1        0.1746
     18 O          59.3284   91.2298    5.3299 O.3     1  UNL1       -0.3462
     19 C          64.2302   83.3561   15.1967 C.3     1  UNL1        0.0473
     20 C          63.2845   84.3356   15.8263 C.3     1  UNL1        0.2054
     21 O          63.8193   85.5391   16.5442 O.3     1  UNL1       -0.4753
     22 C          63.7403   86.8922   15.9016 C.ar    1  UNL1        0.1430
     23 C          63.5143   88.1114   16.7458 C.ar    1  UNL1        0.0663
     24 C          63.4353   89.4644   16.1033 C.ar    1  UNL1        0.1418
     25 F          63.2093   90.6836   16.9475 F       1  UNL1       -0.2043
     26 C          63.5823   89.5984   14.6165 C.ar    1  UNL1        0.0421
     27 C          63.8083   88.3793   13.7723 C.ar    1  UNL1        0.1418
     28 F          63.9553   88.5133   12.2855 F       1  UNL1       -0.2043
     29 C          63.8873   87.0262   14.4149 C.ar    1  UNL1        0.0663
     30 C          63.5033   90.9515   13.9739 C.3     1  UNL1        0.1160
     31 C          64.7367   91.5814   13.3978 C.2     1  UNL1        0.2302
     32 O          64.9326   91.6243   11.9113 O.2     1  UNL1       -0.2745
     33 N          65.7742   92.1684   14.3083 N.am    1  UNL1       -0.2791
     34 C          65.9244   92.3088   15.7941 C.3     1  UNL1        0.0952
     35 C          67.2416   92.9985   15.5958 C.3     1  UNL1        0.0430
     36 C          67.0914   92.8581   14.1099 C.3     1  UNL1        0.0952
@<TRIPOS>BOND
     1    17    18    1
     2    18    16    1
     3    16    10    1
     4    10    11   ar
     5    11    12   ar
     6    12    13   ar
     7    13     4    1
     8     4     5    1
     9     5     6    1
    10     6     7    1
    11     1     7    1
    12     1     2    1
    13     2     3    1
    14     3    19    1
    15    19    20    1
    16    20    21    1
    17    21    22    1
    18    22    23   ar
    19    23    24   ar
    20    24    25    1
    21    24    26   ar
    22    26    30    1
    23    30    31    1
    24    31    32    2
    25    31    33   am
    26    33    34    1
    27    34    35    1
    28    35    36    1
    29    26    27   ar
    30    27    28    1
    31    27    29   ar
    32     7     8    1
    33     8     9    1
    34    13    14   ar
    35    14    15   ar
    36    15    10   ar
    37     9     4    1
    38     3     1    1
    39    29    22   ar
    40    36    33    1
@<TRIPOS>MOLECULE
*****
 36 40 0 0 0
SMALL
GASTEIGER

@<TRIPOS>ATOM
      1 C          63.7373   83.5200   12.4136 C.3     1  UNL1        0.0002
      2 C          64.5896   82.2998   12.5998 C.3     1  UNL1        0.0001
      3 C          64.1572   83.1016   13.7915 C.3     1  UNL1        0.0037
      4 N          61.5339   86.3582    9.7045 N.pl3   1  UNL1       -0.2782
      5 C          61.2643   86.3681   11.1800 C.3     1  UNL1        0.0936
      6 C          61.9987   85.4221   12.0830 C.3     1  UNL1        0.0216
      7 C          63.0029   84.4661   11.5106 C.3     1  UNL1        0.0034
      8 C          63.2725   84.4561   10.0351 C.3     1  UNL1        0.0216
      9 C          62.5380   85.4022    9.1320 C.3     1  UNL1        0.0936
     10 C          59.3305   89.1964    6.9954 C.ar    1  UNL1        0.0457
     11 C          59.2566   87.7181    6.7524 C.ar    1  UNL1        0.1015
     12 N          59.9911   86.7720    7.6555 N.ar    1  UNL1       -0.2123
     13 C          60.7994   87.3043    8.8014 C.ar    1  UNL1        0.2202
     14 N          60.8732   88.7826    9.0444 N.ar    1  UNL1       -0.2123
     15 C          60.1387   89.7287    8.1413 C.ar    1  UNL1        0.1015
     16 C          58.5960   90.1425    6.0923 C.3     1  UNL1        0.1718
     17 C          58.6287   92.0803    4.3620 C.3     1  UNL1        0.1746
     18 O          59.3521   91.1865    5.3253 O.3     1  UNL1       -0.3462
     19 C          64.1499   83.3229   15.2750 C.3     1  UNL1        0.0473
     20 C          63.2297   84.3434   15.8766 C.3     1  UNL1        0.2054
     21 O          63.7955   85.5435   16.5764 O.3     1  UNL1       -0.4753
     22 C          63.7228   86.8937   15.9271 C.ar    1  UNL1        0.1430
     23 C          63.8848   87.0212   14.4413 C.ar    1  UNL1        0.0663
     24 C          63.8121   88.3714   13.7920 C.ar    1  UNL1        0.1418
     25 F          63.9741   88.4988   12.3062 F       1  UNL1       -0.2043
     26 C          63.5776   89.5941   14.6285 C.ar    1  UNL1        0.0421
     27 C          63.4156   89.4667   16.1143 C.ar    1  UNL1        0.1418
     28 F          63.1810   90.6896   16.9507 F       1  UNL1       -0.2043
     29 C          63.4883   88.1165   16.7636 C.ar    1  UNL1        0.0663
     30 C          63.5049   90.9444   13.9792 C.3     1  UNL1        0.1160
     31 C          64.7468   91.5788   13.4268 C.2     1  UNL1        0.2302
     32 O          64.9686   91.6270   11.9441 O.2     1  UNL1       -0.2745
     33 N          65.7670   92.1650   14.3572 N.am    1  UNL1       -0.2791
     34 C          65.8909   92.3008   15.8459 C.3     1  UNL1        0.0952
     35 C          67.2098   92.9940   15.6729 C.3     1  UNL1        0.0430
     36 C          67.0860   92.8582   14.1842 C.3     1  UNL1        0.0952
@<TRIPOS>BOND
     1    17    18    1
     2    18    16    1
     3    16    10    1
     4    10    11   ar
     5    11    12   ar
     6    12    13   ar
     7    13     4    1
     8     4     5    1
     9     5     6    1
    10     6     7    1
    11     1     7    1
    12     1     2    1
    13     2     3    1
    14     3    19    1
    15    19    20    1
    16    20    21    1
    17    21    22    1
    18    22    23   ar
    19    23    24   ar
    20    24    25    1
    21    24    26   ar
    22    26    30    1
    23    30    31    1
    24    31    32    2
    25    31    33   am
    26    33    34    1
    27    34    35    1
    28    35    36    1
    29    26    27   ar
    30    27    28    1
    31    27    29   ar
    32     7     8    1
    33     8     9    1
    34    13    14   ar
    35    14    15   ar
    36    15    10   ar
    37     9     4    1
    38     3     1    1
    39    29    22   ar
    40    36    33    1
@<TRIPOS>MOLECULE
*****
 36 40 0 0 0
SMALL
GASTEIGER

@<TRIPOS>ATOM
      1 C          59.4508   89.2738    6.8769 C.3     1  UNL1        0.0002
      2 C          58.9939   87.9338    7.3725 C.3     1  UNL1        0.0001
      3 C          59.7968   88.8306    8.2675 C.3     1  UNL1        0.0037
      4 N          59.6429   92.3625    3.6100 N.pl3   1  UNL1       -0.2782
      5 C          58.3259   92.0179    4.2398 C.3     1  UNL1        0.0936
      6 C          58.2619   90.9883    5.3288 C.3     1  UNL1        0.0216
      7 C          59.5148   90.3034    5.7879 C.3     1  UNL1        0.0034
      8 C          60.8318   90.6479    5.1581 C.3     1  UNL1        0.0216
      9 C          60.8958   91.6775    4.0691 C.3     1  UNL1        0.0936
     10 C          59.8350   95.4512    0.3430 C.ar    1  UNL1        0.0457
     11 C          59.3854   94.0549    0.0295 C.ar    1  UNL1        0.1015
     12 N          59.3214   93.0254    1.1185 N.ar    1  UNL1       -0.2123
     13 C          59.7069   93.3920    2.5210 C.ar    1  UNL1        0.2202
     14 N          60.1565   94.7883    2.8344 N.ar    1  UNL1       -0.2123
     15 C          60.2205   95.8179    1.7454 C.ar    1  UNL1        0.1015
     16 C          59.8990   96.4807   -0.7460 C.3     1  UNL1        0.1718
     17 C          59.3279   95.9513   -3.2246 C.3     1  UNL1        0.1746
     18 O          58.9082   96.4445   -1.8716 O.3     1  UNL1       -0.3462
     19 C          60.4602   89.0924    9.5871 C.3     1  UNL1        0.0473
     20 C          61.4398   88.1021   10.1437 C.3     1  UNL1        0.2054
     21 O          61.9520   88.2601   11.5446 O.3     1  UNL1       -0.4753
     22 C          62.8766   89.3921   11.8819 C.ar    1  UNL1        0.1430
     23 C          63.5326   89.4486   13.2297 C.ar    1  UNL1        0.0663
     24 C          64.4572   90.5805   13.5670 C.ar    1  UNL1        0.1418
     25 F          65.1132   90.6369   14.9148 F       1  UNL1       -0.2043
     26 C          64.7257   91.6560   12.5565 C.ar    1  UNL1        0.0421
     27 C          64.0697   91.5996   11.2088 C.ar    1  UNL1        0.1418
     28 F          64.3384   92.6752   10.1983 F       1  UNL1       -0.2043
     29 C          63.1452   90.4677   10.8714 C.ar    1  UNL1        0.0663
     30 C          65.6503   92.7881   12.8938 C.3     1  UNL1        0.1160
     31 C          67.1174   92.5308   13.0713 C.2     1  UNL1        0.2302
     32 O          67.9684   92.1915   11.8836 O.2     1  UNL1       -0.2745
     33 N          67.7334   92.6127   14.4365 N.am    1  UNL1       -0.2791
     34 C          67.2227   92.9142   15.8143 C.3     1  UNL1        0.0952
     35 C          68.6047   92.7286   16.3672 C.3     1  UNL1        0.0430
     36 C          69.1154   92.4272   14.9893 C.3     1  UNL1        0.0952
@<TRIPOS>BOND
     1    17    18    1
     2    18    16    1
     3    16    10    1
     4    10    11   ar
     5    11    12   ar
     6    12    13   ar
     7    13     4    1
     8     4     5    1
     9     5     6    1
    10     6     7    1
    11     1     7    1
    12     1     2    1
    13     2     3    1
    14     3    19    1
    15    19    20    1
    16    20    21    1
    17    21    22    1
    18    22    23   ar
    19    23    24   ar
    20    24    25    1
    21    24    26   ar
    22    26    30    1
    23    30    31    1
    24    31    32    2
    25    31    33   am
    26    33    34    1
    27    34    35    1
    28    35    36    1
    29    26    27   ar
    30    27    28    1
    31    27    29   ar
    32     7     8    1
    33     8     9    1
    34    13    14   ar
    35    14    15   ar
    36    15    10   ar
    37     9     4    1
    38     3     1    1
    39    29    22   ar
    40    36    33    1
@<TRIPOS>MOLECULE
*****
 36 40 0 0 0
SMALL
GASTEIGER

@<TRIPOS>ATOM
      1 C          59.5328   89.2511    6.9790 C.3     1  UNL1        0.0002
      2 C          59.2224   87.8609    7.4490 C.3     1  UNL1        0.0001
      3 C          59.7504   88.8791    8.4157 C.3     1  UNL1        0.0037
      4 N          59.6934   92.3036    3.6764 N.pl3   1  UNL1       -0.2782
      5 C          58.3768   91.9341    4.2928 C.3     1  UNL1        0.0936
      6 C          58.3233   90.9166    5.3937 C.3     1  UNL1        0.0216
      7 C          59.5863   90.2686    5.8781 C.3     1  UNL1        0.0034
      8 C          60.9029   90.6381    5.2617 C.3     1  UNL1        0.0216
      9 C          60.9564   91.6555    4.1608 C.3     1  UNL1        0.0936
     10 C          59.8540   95.3560    0.3738 C.ar    1  UNL1        0.0457
     11 C          60.1762   95.7576    1.7827 C.ar    1  UNL1        0.1015
     12 N          60.1227   94.7401    2.8835 N.ar    1  UNL1       -0.2123
     13 C          59.7469   93.3210    2.5756 C.ar    1  UNL1        0.2202
     14 N          59.4247   92.9194    1.1667 N.ar    1  UNL1       -0.2123
     15 C          59.4782   93.9369    0.0659 C.ar    1  UNL1        0.1015
     16 C          59.9075   96.3735   -0.7270 C.3     1  UNL1        0.1718
     17 C          62.1755   95.4833   -1.6291 C.3     1  UNL1        0.1746
     18 O          61.1867   96.6009   -1.4765 O.3     1  UNL1       -0.3462
     19 C          60.1810   89.2521    9.8033 C.3     1  UNL1        0.0473
     20 C          61.2682   88.4756   10.4854 C.3     1  UNL1        0.2054
     21 O          61.7043   88.8537   11.8699 O.3     1  UNL1       -0.4753
     22 C          62.8020   89.8577   12.0626 C.ar    1  UNL1        0.1430
     23 C          63.1297   90.8299   10.9683 C.ar    1  UNL1        0.0663
     24 C          64.2273   91.8339   11.1609 C.ar    1  UNL1        0.1418
     25 F          64.5550   92.8061   10.0667 F       1  UNL1       -0.2043
     26 C          64.9972   91.8657   12.4479 C.ar    1  UNL1        0.0421
     27 C          64.6695   90.8935   13.5421 C.ar    1  UNL1        0.1418
     28 F          65.4395   90.9253   14.8291 F       1  UNL1       -0.2043
     29 C          63.5719   89.8895   13.3495 C.ar    1  UNL1        0.0663
     30 C          66.0950   92.8697   12.6405 C.3     1  UNL1        0.1160
     31 C          66.4931   93.7718   11.5102 C.2     1  UNL1        0.2302
     32 O          65.9871   95.1831   11.4630 O.2     1  UNL1       -0.2745
     33 N          67.3973   93.2627   10.4272 N.am    1  UNL1       -0.2791
     34 C          68.0808   91.9582   10.1419 C.3     1  UNL1        0.0952
     35 C          68.6761   92.5427    8.8953 C.3     1  UNL1        0.0430
     36 C          67.9927   93.8471    9.1805 C.3     1  UNL1        0.0952
@<TRIPOS>BOND
     1    17    18    1
     2    18    16    1
     3    16    10    1
     4    10    11   ar
     5    11    12   ar
     6    12    13   ar
     7    13     4    1
     8     4     5    1
     9     5     6    1
    10     6     7    1
    11     1     7    1
    12     1     2    1
    13     2     3    1
    14     3    19    1
    15    19    20    1
    16    20    21    1
    17    21    22    1
    18    22    23   ar
    19    23    24   ar
    20    24    25    1
    21    24    26   ar
    22    26    30    1
    23    30    31    1
    24    31    32    2
    25    31    33   am
    26    33    34    1
    27    34    35    1
    28    35    36    1
    29    26    27   ar
    30    27    28    1
    31    27    29   ar
    32     7     8    1
    33     8     9    1
    34    13    14   ar
    35    14    15   ar
    36    15    10   ar
    37     9     4    1
    38     3     1    1
    39    29    22   ar
    40    36    33    1
@<TRIPOS>MOLECULE
*****
 36 40 0 0 0
SMALL
GASTEIGER

@<TRIPOS>ATOM
      1 C          59.4662   89.3653    6.9210 C.3     1  UNL1        0.0002
      2 C          59.0595   88.0143    7.4301 C.3     1  UNL1        0.0001
      3 C          59.7549   88.9812    8.3419 C.3     1  UNL1        0.0037
      4 N          59.6705   92.3709    3.5781 N.pl3   1  UNL1       -0.2782
      5 C          60.9247   91.7144    4.0742 C.3     1  UNL1        0.0936
      6 C          60.8566   90.7125    5.1885 C.3     1  UNL1        0.0216
      7 C          59.5343   90.3672    5.8067 C.3     1  UNL1        0.0034
      8 C          58.2802   91.0237    5.3107 C.3     1  UNL1        0.0216
      9 C          58.3483   92.0255    4.1964 C.3     1  UNL1        0.0936
     10 C          59.8749   95.3764    0.2352 C.ar    1  UNL1        0.0457
     11 C          59.4896   93.9562   -0.0556 C.ar    1  UNL1        0.1015
     12 N          59.4215   92.9544    1.0587 N.ar    1  UNL1       -0.2123
     13 C          59.7386   93.3727    2.4638 C.ar    1  UNL1        0.2202
     14 N          60.1239   94.7929    2.7546 N.ar    1  UNL1       -0.2123
     15 C          60.1920   95.7947    1.6403 C.ar    1  UNL1        0.1015
     16 C          59.9430   96.3782   -0.8791 C.3     1  UNL1        0.1718
     17 C          61.3728   95.5597   -2.8880 C.3     1  UNL1        0.1746
     18 O          60.0379   95.9124   -2.3017 O.3     1  UNL1       -0.3462
     19 C          60.3231   89.3176    9.6888 C.3     1  UNL1        0.0473
     20 C          61.7841   89.6266    9.8306 C.3     1  UNL1        0.2054
     21 O          62.4178   89.6476   11.1899 O.3     1  UNL1       -0.4753
     22 C          62.8046   88.3609   11.8571 C.ar    1  UNL1        0.1430
     23 C          63.6145   88.3846   13.1195 C.ar    1  UNL1        0.0663
     24 C          64.0013   87.0981   13.7866 C.ar    1  UNL1        0.1418
     25 F          64.8111   87.1217   15.0490 F       1  UNL1       -0.2043
     26 C          63.5782   85.7879   13.1914 C.ar    1  UNL1        0.0421
     27 C          62.7683   85.7642   11.9291 C.ar    1  UNL1        0.1418
     28 F          62.3452   84.4539   11.3339 F       1  UNL1       -0.2043
     29 C          62.3815   87.0507   11.2619 C.ar    1  UNL1        0.0663
     30 C          63.9650   84.5012   13.8586 C.3     1  UNL1        0.1160
     31 C          62.9106   83.6267   14.4697 C.2     1  UNL1        0.2302
     32 O          62.0928   84.1313   15.6215 O.2     1  UNL1       -0.2745
     33 N          62.6741   82.2478   13.9291 N.am    1  UNL1       -0.2791
     34 C          63.2711   81.4236   12.8270 C.3     1  UNL1        0.0952
     35 C          62.3394   80.2975   13.1645 C.3     1  UNL1        0.0430
     36 C          61.7424   81.1216   14.2665 C.3     1  UNL1        0.0952
@<TRIPOS>BOND
     1    17    18    1
     2    18    16    1
     3    16    10    1
     4    10    11   ar
     5    11    12   ar
     6    12    13   ar
     7    13     4    1
     8     4     5    1
     9     5     6    1
    10     6     7    1
    11     1     7    1
    12     1     2    1
    13     2     3    1
    14     3    19    1
    15    19    20    1
    16    20    21    1
    17    21    22    1
    18    22    23   ar
    19    23    24   ar
    20    24    25    1
    21    24    26   ar
    22    26    30    1
    23    30    31    1
    24    31    32    2
    25    31    33   am
    26    33    34    1
    27    34    35    1
    28    35    36    1
    29    26    27   ar
    30    27    28    1
    31    27    29   ar
    32     7     8    1
    33     8     9    1
    34    13    14   ar
    35    14    15   ar
    36    15    10   ar
    37     9     4    1
    38     3     1    1
    39    29    22   ar
    40    36    33    1
