@<TRIPOS>MOLECULE
*****
 11 12 0 0 0
SMALL
GASTEIGER

@<TRIPOS>ATOM
      1 O          64.7393   92.8187   17.5446 O.2     1  UNL1       -0.4942
      2 C          64.9169   92.2233   16.1793 C.2     1  UNL1        0.2180
      3 N          63.7990   91.4474   15.5482 N.2     1  UNL1       -0.1677
      4 C          63.9766   90.8520   14.1830 C.2     1  UNL1        0.3413
      5 N          65.2721   91.0325   13.4487 N.2     1  UNL1       -0.0094
      6 C          66.3900   91.8085   14.0798 C.2     1  UNL1        0.3938
      7 N          67.7700   92.1497   13.6012 N.2     1  UNL1        0.0824
      8 N          68.4453   92.9560   14.6707 N.2     1  UNL1       -0.0362
      9 C          67.4827   93.1131   15.8103 C.2     1  UNL1        0.1442
     10 C          66.2124   92.4039   15.4451 C.3     1  UNL1        0.2345
     11 H          63.9300   92.7059   18.0032 H       1  UNL1        0.2934
@<TRIPOS>BOND
     1     1     2    1
     2     2     3    2
     3     3     4    1
     4     4     5    2
     5     5     6    1
     6     6     7    2
     7     7     8    1
     8     8     9    2
     9     9    10    1
    10    10     2    1
    11    10     6    1
    12     1    11    1
@<TRIPOS>MOLECULE
*****
 11 12 0 0 0
SMALL
GASTEIGER

@<TRIPOS>ATOM
      1 O          65.0693   82.6106   11.5296 O.2     1  UNL1       -0.4942
      2 C          63.9488   82.3594   12.4947 C.2     1  UNL1        0.2180
      3 N          63.2511   81.0316   12.5047 N.2     1  UNL1       -0.1677
      4 C          62.1307   80.7804   13.4698 C.2     1  UNL1        0.3413
      5 N          61.7078   81.8570   14.4249 N.2     1  UNL1       -0.0094
      6 C          62.4055   83.1848   14.4149 C.2     1  UNL1        0.3938
      7 N          62.2102   84.4274   15.2320 N.2     1  UNL1        0.0824
      8 N          63.2100   85.4466   14.7719 N.2     1  UNL1       -0.0362
      9 C          64.0232   84.8339   13.6704 C.2     1  UNL1        0.1442
     10 C          63.5260   83.4360   13.4497 C.3     1  UNL1        0.2345
     11 H          65.3333   81.9381   10.9330 H       1  UNL1        0.2934
@<TRIPOS>BOND
     1     1     2    1
     2     2     3    2
     3     3     4    1
     4     4     5    2
     5     5     6    1
     6     6     7    2
     7     7     8    1
     8     8     9    2
     9     9    10    1
    10    10     2    1
    11    10     6    1
    12     1    11    1
@<TRIPOS>MOLECULE
*****
 11 12 0 0 0
SMALL
GASTEIGER

@<TRIPOS>ATOM
      1 O          67.3822   92.3475   12.0488 O.2     1  UNL1       -0.4942
      2 C          67.0802   92.4683   13.5132 C.2     1  UNL1        0.2180
      3 N          68.0950   93.0671   14.4414 N.2     1  UNL1       -0.1677
      4 C          67.7931   93.1879   15.9056 C.2     1  UNL1        0.3413
      5 N          66.4762   92.7099   16.4418 N.2     1  UNL1       -0.0094
      6 C          65.4613   92.1112   15.5136 C.2     1  UNL1        0.3938
      7 N          64.0877   91.5573   15.7508 N.2     1  UNL1        0.0824
      8 N          63.5407   91.0942   14.4331 N.2     1  UNL1       -0.0362
      9 C          64.5763   91.3618   13.3815 C.2     1  UNL1        0.1442
     10 C          65.7633   91.9904   14.0493 C.3     1  UNL1        0.2345
     11 H          68.2048   92.6461   11.7140 H       1  UNL1        0.2934
@<TRIPOS>BOND
     1     1     2    1
     2     2     3    2
     3     3     4    1
     4     4     5    2
     5     5     6    1
     6     6     7    2
     7     7     8    1
     8     8     9    2
     9     9    10    1
    10    10     2    1
    11    10     6    1
    12     1    11    1
@<TRIPOS>MOLECULE
*****
 11 12 0 0 0
SMALL
GASTEIGER

@<TRIPOS>ATOM
      1 O          61.4054   81.1819   14.4579 O.2     1  UNL1       -0.4942
      2 C          62.5268   82.1418   14.1912 C.2     1  UNL1        0.2180
      3 N          63.0250   83.0363   15.2874 N.2     1  UNL1       -0.1677
      4 C          64.1464   83.9961   15.0208 C.2     1  UNL1        0.3413
      5 N          64.7696   84.0615   13.6579 N.2     1  UNL1       -0.0094
      6 C          64.2714   83.1671   12.5617 C.2     1  UNL1        0.3938
      7 N          64.6866   83.0085   11.1291 N.2     1  UNL1        0.0824
      8 N          63.8217   81.9506   10.5103 N.2     1  UNL1       -0.0362
      9 C          62.8721   81.4554   11.5605 C.2     1  UNL1        0.1442
     10 C          63.1500   82.2072   12.8284 C.3     1  UNL1        0.2345
     11 H          61.0161   81.1411   15.3092 H       1  UNL1        0.2934
@<TRIPOS>BOND
     1     1     2    1
     2     2     3    2
     3     3     4    1
     4     4     5    2
     5     5     6    1
     6     6     7    2
     7     7     8    1
     8     8     9    2
     9     9    10    1
    10    10     2    1
    11    10     6    1
    12     1    11    1
@<TRIPOS>MOLECULE
*****
 11 12 0 0 0
SMALL
GASTEIGER

@<TRIPOS>ATOM
      1 O          65.1045   82.9107   11.4386 O.2     1  UNL1       -0.4942
      2 C          64.1962   83.1575   12.6065 C.2     1  UNL1        0.2180
      3 N          64.2653   84.4593   13.3484 N.2     1  UNL1       -0.1677
      4 C          63.3570   84.7062   14.5162 C.2     1  UNL1        0.3413
      5 N          62.3794   83.6512   14.9422 N.2     1  UNL1       -0.0094
      6 C          62.3102   82.3494   14.2003 C.2     1  UNL1        0.3938
      7 N          61.4547   81.1317   14.3877 N.2     1  UNL1        0.0824
      8 N          61.8344   80.1322   13.3356 N.2     1  UNL1       -0.0362
      9 C          62.9245   80.7322   12.4980 C.2     1  UNL1        0.1442
     10 C          63.2186   82.1026   13.0324 C.3     1  UNL1        0.2345
     11 H          65.7152   83.5697   11.1725 H       1  UNL1        0.2934
@<TRIPOS>BOND
     1     1     2    1
     2     2     3    2
     3     3     4    1
     4     4     5    2
     5     5     6    1
     6     6     7    2
     7     7     8    1
     8     8     9    2
     9     9    10    1
    10    10     2    1
    11    10     6    1
    12     1    11    1
@<TRIPOS>MOLECULE
*****
 11 12 0 0 0
SMALL
GASTEIGER

@<TRIPOS>ATOM
      1 O          64.7033   92.5976   16.2142 O.2     1  UNL1       -0.4942
      2 C          66.0764   92.6031   15.6104 C.2     1  UNL1        0.2180
      3 N          67.2835   92.7182   16.4934 N.2     1  UNL1       -0.1677
      4 C          68.6565   92.7237   15.8896 C.2     1  UNL1        0.3413
      5 N          68.8226   92.6141   14.4028 N.2     1  UNL1       -0.0094
      6 C          67.6154   92.4989   13.5199 C.2     1  UNL1        0.3938
      7 N          67.4681   92.3772   12.0321 N.2     1  UNL1        0.0824
      8 N          66.0040   92.2965   11.7164 N.2     1  UNL1       -0.0362
      9 C          65.2464   92.3683   13.0091 C.2     1  UNL1        0.1442
     10 C          66.2423   92.4934   14.1237 C.3     1  UNL1        0.2345
     11 H          64.5996   92.6660   17.1430 H       1  UNL1        0.2934
@<TRIPOS>BOND
     1     1     2    1
     2     2     3    2
     3     3     4    1
     4     4     5    2
     5     5     6    1
     6     6     7    2
     7     7     8    1
     8     8     9    2
     9     9    10    1
    10    10     2    1
    11    10     6    1
    12     1    11    1
@<TRIPOS>MOLECULE
*****
 11 12 0 0 0
SMALL
GASTEIGER

@<TRIPOS>ATOM
      1 O          62.0221   81.0842   14.7873 O.2     1  UNL1       -0.4942
      2 C          62.5325   82.0590   13.7679 C.2     1  UNL1        0.2180
      3 N          62.7487   81.6178   12.3506 N.2     1  UNL1       -0.1677
      4 C          63.2591   82.5926   11.3313 C.2     1  UNL1        0.3413
      5 N          63.5534   84.0087   11.7291 N.2     1  UNL1       -0.0094
      6 C          63.3372   84.4499   13.1463 C.2     1  UNL1        0.3938
      7 N          63.5378   85.7709   13.8279 N.2     1  UNL1        0.0824
      8 N          63.1514   85.6125   15.2686 N.2     1  UNL1       -0.0362
      9 C          62.7119   84.1936   15.4774 C.2     1  UNL1        0.1442
     10 C          62.8268   83.4750   14.1657 C.3     1  UNL1        0.2345
     11 H          61.8383   80.1996   14.5387 H       1  UNL1        0.2934
@<TRIPOS>BOND
     1     1     2    1
     2     2     3    2
     3     3     4    1
     4     4     5    2
     5     5     6    1
     6     6     7    2
     7     7     8    1
     8     8     9    2
     9     9    10    1
    10    10     2    1
    11    10     6    1
    12     1    11    1
@<TRIPOS>MOLECULE
*****
 11 12 0 0 0
SMALL
GASTEIGER

@<TRIPOS>ATOM
      1 O          61.6953   85.9264   11.8892 O.2     1  UNL1       -0.4942
      2 C          62.5944   84.7263   11.8506 C.2     1  UNL1        0.2180
      3 N          63.2326   84.3085   10.5591 N.2     1  UNL1       -0.1677
      4 C          64.1316   83.1085   10.5205 C.2     1  UNL1        0.3413
      5 N          64.3925   82.3262   11.7735 N.2     1  UNL1       -0.0094
      6 C          63.7543   82.7440   13.0650 C.2     1  UNL1        0.3938
      7 N          63.8249   82.1729   14.4503 N.2     1  UNL1        0.0824
      8 N          62.9695   83.0201   15.3450 N.2     1  UNL1       -0.0362
      9 C          62.3702   84.1147   14.5127 C.2     1  UNL1        0.1442
     10 C          62.8552   83.9441   13.1036 C.3     1  UNL1        0.2345
     11 H          61.5324   86.4151   11.1065 H       1  UNL1        0.2934
@<TRIPOS>BOND
     1     1     2    1
     2     2     3    2
     3     3     4    1
     4     4     5    2
     5     5     6    1
     6     6     7    2
     7     7     8    1
     8     8     9    2
     9     9    10    1
    10    10     2    1
    11    10     6    1
    12     1    11    1
@<TRIPOS>MOLECULE
*****
 11 12 0 0 0
SMALL
GASTEIGER

@<TRIPOS>ATOM
      1 O          69.4776   91.7953   13.1114 O.2     1  UNL1       -0.4942
      2 C          68.0038   91.8917   13.3732 C.2     1  UNL1        0.2180
      3 N          67.4650   91.6045   14.7433 N.2     1  UNL1       -0.1677
      4 C          65.9913   91.7008   15.0051 C.2     1  UNL1        0.3413
      5 N          65.0561   92.0845   13.8967 N.2     1  UNL1       -0.0094
      6 C          65.5948   92.3718   12.5266 C.2     1  UNL1        0.3938
      7 N          64.9217   92.7699   11.2466 N.2     1  UNL1        0.0824
      8 N          65.9796   92.9196   10.1938 N.2     1  UNL1       -0.0362
      9 C          67.3065   92.6140   10.8230 C.2     1  UNL1        0.1442
     10 C          67.0687   92.2754   12.2649 C.3     1  UNL1        0.2345
     11 H          70.0617   91.5557   13.8038 H       1  UNL1        0.2934
@<TRIPOS>BOND
     1     1     2    1
     2     2     3    2
     3     3     4    1
     4     4     5    2
     5     5     6    1
     6     6     7    2
     7     7     8    1
     8     8     9    2
     9     9    10    1
    10    10     2    1
    11    10     6    1
    12     1    11    1
