@<TRIPOS>MOLECULE
*****
 33 35 0 0 0
SMALL
GASTEIGER

@<TRIPOS>ATOM
      1 N          64.6221   88.8193   14.5592 N.am    1  UNL1       -0.2837
      2 C          63.7474   89.6874   15.4143 C.2     1  UNL1        0.2297
      3 O          62.4651   89.1432   15.9706 O.2     1  UNL1       -0.2744
      4 H          65.4638   89.1765   14.1941 H       1  UNL1        0.1549
      5 C          63.3995   84.5824   13.6628 C.ar    1  UNL1        0.0002
      6 C          64.1165   84.9016   14.9410 C.ar    1  UNL1        0.0013
      7 C          64.5241   86.3138   15.2399 C.ar    1  UNL1        0.0147
      8 C          64.2146   87.4070   14.2604 C.ar    1  UNL1        0.0503
      9 C          63.4976   87.0878   12.9821 C.ar    1  UNL1        0.0147
     10 C          63.0900   85.6754   12.6833 C.ar    1  UNL1        0.0013
     11 C          63.1565   80.5697   10.3705 C.3     1  UNL1        0.0521
     12 C          62.8705   81.1637   11.7178 C.ar    1  UNL1        0.0594
     13 C          63.2780   82.5760   12.0166 C.ar    1  UNL1        0.0147
     14 C          62.9919   83.1700   13.3640 C.ar    1  UNL1        0.0027
     15 C          62.2984   82.3518   14.4125 C.ar    1  UNL1        0.0207
     16 C          61.8909   80.9395   14.1136 C.ar    1  UNL1        0.0984
     17 N          62.1769   80.3454   12.7663 N.ar    1  UNL1       -0.2481
     18 C          64.1549   91.0996   15.7132 C.3     1  UNL1        0.0990
     19 C          63.3985   91.8988   16.7326 C.3     1  UNL1        0.0143
     20 C          65.3189   91.7128   14.9926 C.ar    1  UNL1       -0.0140
     21 C          66.4976   92.2217   15.7683 C.ar    1  UNL1        0.0000
     22 C          67.6615   92.8348   15.0477 C.ar    1  UNL1        0.0711
     23 C          67.6468   92.9391   13.5514 C.ar    1  UNL1        0.0077
     24 C          66.4681   92.4302   12.7757 C.ar    1  UNL1        0.0711
     25 C          65.3042   91.8171   13.4963 C.ar    1  UNL1        0.0000
     26 C          68.8402   93.3438   15.8234 C.3     1  UNL1        0.4186
     27 F          70.0189   93.8526   16.5991 F       1  UNL1       -0.1659
     28 F          69.3984   91.9530   15.8877 F       1  UNL1       -0.1659
     29 F          68.2821   94.7346   15.7591 F       1  UNL1       -0.1659
     30 C          66.4534   92.5344   11.2794 C.3     1  UNL1        0.4186
     31 F          66.4387   92.6387    9.7831 F       1  UNL1       -0.1659
     32 F          67.8738   92.0547   11.2320 F       1  UNL1       -0.1659
     33 F          65.0330   93.0142   11.3268 F       1  UNL1       -0.1659
@<TRIPOS>BOND
     1    11    12    1
     2    12    13   ar
     3    13    14   ar
     4    14     5    1
     5     5     6   ar
     6     6     7   ar
     7     7     8   ar
     8     8     1    1
     9     1     2   am
    10     2     3    2
    11     2    18    1
    12    18    19    1
    13    18    20    1
    14    20    21   ar
    15    21    22   ar
    16    22    26    1
    17    26    27    1
    18    26    28    1
    19    26    29    1
    20    22    23   ar
    21    23    24   ar
    22    24    30    1
    23    30    31    1
    24    30    32    1
    25    30    33    1
    26    24    25   ar
    27     8     9   ar
    28     9    10   ar
    29    14    15   ar
    30    15    16   ar
    31    16    17   ar
    32    17    12   ar
    33    10     5   ar
    34    25    20   ar
    35     1     4    1
@<TRIPOS>MOLECULE
*****
 33 35 0 0 0
SMALL
GASTEIGER

@<TRIPOS>ATOM
      1 N          64.2994   88.6091   14.1663 N.am    1  UNL1       -0.2837
      2 C          63.7570   89.2733   15.3970 C.2     1  UNL1        0.2297
      3 O          62.9060   88.4951   16.3561 O.2     1  UNL1       -0.2744
      4 H          64.8580   89.1199   13.5368 H       1  UNL1        0.1549
      5 C          63.3733   84.2815   13.3514 C.ar    1  UNL1        0.0002
      6 C          62.8455   85.3466   12.4366 C.ar    1  UNL1        0.0013
      7 C          63.1542   86.7891   12.7081 C.ar    1  UNL1        0.0147
      8 C          63.9907   87.1666   13.8947 C.ar    1  UNL1        0.0503
      9 C          64.5185   86.1015   14.8096 C.ar    1  UNL1        0.0147
     10 C          64.2098   84.6589   14.5379 C.ar    1  UNL1        0.0013
     11 C          63.1185   80.2789   10.0478 C.3     1  UNL1        0.0521
     12 C          62.9372   80.8376   11.4279 C.ar    1  UNL1        0.0594
     13 C          63.2459   82.2801   11.6996 C.ar    1  UNL1        0.0147
     14 C          63.0645   82.8389   13.0798 C.ar    1  UNL1        0.0027
     15 C          62.5745   81.9552   14.1883 C.ar    1  UNL1        0.0207
     16 C          62.2658   80.5127   13.9166 C.ar    1  UNL1        0.0984
     17 N          62.4471   79.9539   12.5364 N.ar    1  UNL1       -0.2481
     18 C          64.0657   90.7159   15.6686 C.3     1  UNL1        0.0990
     19 C          63.3264   91.4509   16.7471 C.3     1  UNL1        0.0143
     20 C          65.1137   91.4234   14.8616 C.ar    1  UNL1       -0.0140
     21 C          64.9188   91.6210   13.3876 C.ar    1  UNL1        0.0000
     22 C          65.9668   92.3286   12.5807 C.ar    1  UNL1        0.0711
     23 C          67.2097   92.8385   13.2479 C.ar    1  UNL1        0.0077
     24 C          67.4046   92.6409   14.7219 C.ar    1  UNL1        0.0711
     25 C          66.3566   91.9333   15.5288 C.ar    1  UNL1        0.0000
     26 C          65.7719   92.5262   11.1065 C.3     1  UNL1        0.4186
     27 F          65.5770   92.7239    9.6325 F       1  UNL1       -0.1659
     28 F          66.9379   93.4694   11.0789 F       1  UNL1       -0.1659
     29 F          64.6059   91.5831   11.1342 F       1  UNL1       -0.1659
     30 C          68.6475   93.1508   15.3891 C.3     1  UNL1        0.4186
     31 F          69.8905   93.6607   16.0563 F       1  UNL1       -0.1659
     32 F          69.4873   92.3971   14.4008 F       1  UNL1       -0.1659
     33 F          67.8078   93.9045   16.3775 F       1  UNL1       -0.1659
@<TRIPOS>BOND
     1    11    12    1
     2    12    13   ar
     3    13    14   ar
     4    14     5    1
     5     5     6   ar
     6     6     7   ar
     7     7     8   ar
     8     8     1    1
     9     1     2   am
    10     2     3    2
    11     2    18    1
    12    18    19    1
    13    18    20    1
    14    20    21   ar
    15    21    22   ar
    16    22    26    1
    17    26    27    1
    18    26    28    1
    19    26    29    1
    20    22    23   ar
    21    23    24   ar
    22    24    30    1
    23    30    31    1
    24    30    32    1
    25    30    33    1
    26    24    25   ar
    27     8     9   ar
    28     9    10   ar
    29    14    15   ar
    30    15    16   ar
    31    16    17   ar
    32    17    12   ar
    33    10     5   ar
    34    25    20   ar
    35     1     4    1
@<TRIPOS>MOLECULE
*****
 33 35 0 0 0
SMALL
GASTEIGER

@<TRIPOS>ATOM
      1 N          63.9579   87.6036   14.0187 N.am    1  UNL1       -0.2837
      2 C          63.5471   88.1374   15.3590 C.2     1  UNL1        0.2297
      3 O          62.9053   87.2275   16.3640 O.2     1  UNL1       -0.2744
      4 H          64.3791   88.2008   13.3591 H       1  UNL1        0.1549
      5 C          63.2648   83.2726   13.0130 C.ar    1  UNL1        0.0002
      6 C          62.7400   84.3463   12.1065 C.ar    1  UNL1        0.0013
      7 C          62.9710   85.7899   12.4418 C.ar    1  UNL1        0.0147
      8 C          63.7269   86.1600   13.6835 C.ar    1  UNL1        0.0503
      9 C          64.2517   85.0862   14.5900 C.ar    1  UNL1        0.0147
     10 C          64.0206   83.6425   14.2547 C.ar    1  UNL1        0.0013
     11 C          62.8662   79.4807    9.4827 C.3     1  UNL1        0.0521
     12 C          62.8345   79.9329   10.9126 C.ar    1  UNL1        0.0594
     13 C          63.0655   81.3766   11.2479 C.ar    1  UNL1        0.0147
     14 C          63.0338   81.8288   12.6777 C.ar    1  UNL1        0.0027
     15 C          62.7711   80.8374   13.7723 C.ar    1  UNL1        0.0207
     16 C          62.5400   79.3938   13.4370 C.ar    1  UNL1        0.0984
     17 N          62.5718   78.9415   12.0071 N.ar    1  UNL1       -0.2481
     18 C          63.7781   89.5811   15.6942 C.3     1  UNL1        0.0990
     19 C          63.3555   90.1179   17.0296 C.3     1  UNL1        0.0143
     20 C          64.4317   90.4880   14.6940 C.ar    1  UNL1       -0.0140
     21 C          65.6545   91.2683   15.0758 C.ar    1  UNL1        0.0000
     22 C          66.3081   92.1752   14.0756 C.ar    1  UNL1        0.0711
     23 C          65.7388   92.3018   12.6937 C.ar    1  UNL1        0.0077
     24 C          64.5159   91.5215   12.3119 C.ar    1  UNL1        0.0711
     25 C          63.8624   90.6147   13.3120 C.ar    1  UNL1        0.0000
     26 C          67.5310   92.9555   14.4574 C.3     1  UNL1        0.4186
     27 F          68.7538   93.7358   14.8392 F       1  UNL1       -0.1659
     28 F          66.7280   94.2223   14.4399 F       1  UNL1       -0.1659
     29 F          68.3339   91.6886   14.4749 F       1  UNL1       -0.1659
     30 C          63.9466   91.6482   10.9299 C.3     1  UNL1        0.4186
     31 F          63.3773   91.7748    9.5479 F       1  UNL1       -0.1659
     32 F          65.2202   92.2892   10.4640 F       1  UNL1       -0.1659
     33 F          62.6730   91.0072   11.3958 F       1  UNL1       -0.1659
@<TRIPOS>BOND
     1    11    12    1
     2    12    13   ar
     3    13    14   ar
     4    14     5    1
     5     5     6   ar
     6     6     7   ar
     7     7     8   ar
     8     8     1    1
     9     1     2   am
    10     2     3    2
    11     2    18    1
    12    18    19    1
    13    18    20    1
    14    20    21   ar
    15    21    22   ar
    16    22    26    1
    17    26    27    1
    18    26    28    1
    19    26    29    1
    20    22    23   ar
    21    23    24   ar
    22    24    30    1
    23    30    31    1
    24    30    32    1
    25    30    33    1
    26    24    25   ar
    27     8     9   ar
    28     9    10   ar
    29    14    15   ar
    30    15    16   ar
    31    16    17   ar
    32    17    12   ar
    33    10     5   ar
    34    25    20   ar
    35     1     4    1
@<TRIPOS>MOLECULE
*****
 33 35 0 0 0
SMALL
GASTEIGER

@<TRIPOS>ATOM
      1 N          63.0265   88.3059   12.3698 N.am    1  UNL1       -0.2837
      2 C          62.6077   89.0848   11.1582 C.2     1  UNL1        0.2297
      3 O          62.1349   88.3647    9.9302 O.2     1  UNL1       -0.2744
      4 H          63.3368   88.7786   13.1757 H       1  UNL1        0.1549
      5 C          62.8646   83.8091   12.3208 C.ar    1  UNL1        0.0002
      6 C          63.4747   84.5250   13.4893 C.ar    1  UNL1        0.0013
      7 C          63.5287   86.0239   13.5056 C.ar    1  UNL1        0.0147
      8 C          62.9725   86.8070   12.3534 C.ar    1  UNL1        0.0503
      9 C          62.3625   86.0912   11.1849 C.ar    1  UNL1        0.0147
     10 C          62.3085   84.5922   11.1686 C.ar    1  UNL1        0.0013
     11 C          62.9876   79.3302    9.6894 C.3     1  UNL1        0.0521
     12 C          62.8722   80.0707   10.9888 C.ar    1  UNL1        0.0594
     13 C          62.9261   81.5696   11.0051 C.ar    1  UNL1        0.0147
     14 C          62.8107   82.3101   12.3045 C.ar    1  UNL1        0.0027
     15 C          62.6413   81.5517   13.5875 C.ar    1  UNL1        0.0207
     16 C          62.5874   80.0528   13.5711 C.ar    1  UNL1        0.0984
     17 N          62.7028   79.3123   12.2718 N.ar    1  UNL1       -0.2481
     18 C          62.6617   90.5837   11.1745 C.3     1  UNL1        0.0990
     19 C          61.4488   91.3820   10.7982 C.3     1  UNL1        0.0143
     20 C          63.9286   91.2843   11.5672 C.ar    1  UNL1       -0.0140
     21 C          64.3159   91.3793   13.0131 C.ar    1  UNL1        0.0000
     22 C          65.5827   92.0799   13.4057 C.ar    1  UNL1        0.0711
     23 C          66.4622   92.6856   12.3523 C.ar    1  UNL1        0.0077
     24 C          66.0749   92.5907   10.9064 C.ar    1  UNL1        0.0711
     25 C          64.8081   91.8900   10.5138 C.ar    1  UNL1        0.0000
     26 C          65.9702   92.1749   14.8518 C.3     1  UNL1        0.4186
     27 F          66.3576   92.2699   16.2977 F       1  UNL1       -0.1659
     28 F          66.3665   93.6076   14.6515 F       1  UNL1       -0.1659
     29 F          65.5738   90.7422   15.0521 F       1  UNL1       -0.1659
     30 C          66.9544   93.1964    9.8530 C.3     1  UNL1        0.4186
     31 F          67.8339   93.8021    8.7996 F       1  UNL1       -0.1659
     32 F          66.1200   94.4427    9.8729 F       1  UNL1       -0.1659
     33 F          67.7888   91.9501    9.8330 F       1  UNL1       -0.1659
@<TRIPOS>BOND
     1    11    12    1
     2    12    13   ar
     3    13    14   ar
     4    14     5    1
     5     5     6   ar
     6     6     7   ar
     7     7     8   ar
     8     8     1    1
     9     1     2   am
    10     2     3    2
    11     2    18    1
    12    18    19    1
    13    18    20    1
    14    20    21   ar
    15    21    22   ar
    16    22    26    1
    17    26    27    1
    18    26    28    1
    19    26    29    1
    20    22    23   ar
    21    23    24   ar
    22    24    30    1
    23    30    31    1
    24    30    32    1
    25    30    33    1
    26    24    25   ar
    27     8     9   ar
    28     9    10   ar
    29    14    15   ar
    30    15    16   ar
    31    16    17   ar
    32    17    12   ar
    33    10     5   ar
    34    25    20   ar
    35     1     4    1
@<TRIPOS>MOLECULE
*****
 33 35 0 0 0
SMALL
GASTEIGER

@<TRIPOS>ATOM
      1 N          62.9115   88.2679   12.3480 N.am    1  UNL1       -0.2837
      2 C          62.6194   89.0448   11.0986 C.2     1  UNL1        0.2297
      3 O          62.2960   88.3223    9.8245 O.2     1  UNL1       -0.2744
      4 H          63.1237   88.7421   13.1843 H       1  UNL1        0.1549
      5 C          62.8178   83.7695   12.2739 C.ar    1  UNL1        0.0002
      6 C          62.2167   84.5509   11.1434 C.ar    1  UNL1        0.0013
      7 C          62.2479   86.0503   11.1681 C.ar    1  UNL1        0.0147
      8 C          62.8802   86.7684   12.3233 C.ar    1  UNL1        0.0503
      9 C          63.4813   85.9870   13.4539 C.ar    1  UNL1        0.0147
     10 C          63.4501   84.4875   13.4292 C.ar    1  UNL1        0.0013
     11 C          63.0446   79.3069    9.6217 C.3     1  UNL1        0.0521
     12 C          62.8999   80.0387   10.9231 C.ar    1  UNL1        0.0594
     13 C          62.9312   81.5381   10.9479 C.ar    1  UNL1        0.0147
     14 C          62.7865   82.2699   12.2492 C.ar    1  UNL1        0.0027
     15 C          62.6106   81.5023   13.5258 C.ar    1  UNL1        0.0207
     16 C          62.5794   80.0029   13.5011 C.ar    1  UNL1        0.0984
     17 N          62.7241   79.2711   12.1997 N.ar    1  UNL1       -0.2481
     18 C          62.6506   90.5442   11.1233 C.3     1  UNL1        0.0990
     19 C          61.4262   91.3261   10.7496 C.3     1  UNL1        0.0143
     20 C          63.9062   91.2618   11.5215 C.ar    1  UNL1       -0.0140
     21 C          64.7733   91.8941   10.4736 C.ar    1  UNL1        0.0000
     22 C          66.0288   92.6117   10.8719 C.ar    1  UNL1        0.0711
     23 C          66.4173   92.6969   12.3182 C.ar    1  UNL1        0.0077
     24 C          65.5502   92.0646   13.3662 C.ar    1  UNL1        0.0711
     25 C          64.2947   91.3471   12.9679 C.ar    1  UNL1        0.0000
     26 C          66.8959   93.2440    9.8239 C.3     1  UNL1        0.4186
     27 F          67.7631   93.8763    8.7759 F       1  UNL1       -0.1659
     28 F          67.7137   91.9892    9.7434 F       1  UNL1       -0.1659
     29 F          66.0782   94.4989    9.9043 F       1  UNL1       -0.1659
     30 C          65.9387   92.1499   14.8125 C.3     1  UNL1        0.4186
     31 F          66.3271   92.2352   16.2588 F       1  UNL1       -0.1659
     32 F          66.4138   93.5570   14.6019 F       1  UNL1       -0.1659
     33 F          65.4635   90.7428   15.0231 F       1  UNL1       -0.1659
@<TRIPOS>BOND
     1    11    12    1
     2    12    13   ar
     3    13    14   ar
     4    14     5    1
     5     5     6   ar
     6     6     7   ar
     7     7     8   ar
     8     8     1    1
     9     1     2   am
    10     2     3    2
    11     2    18    1
    12    18    19    1
    13    18    20    1
    14    20    21   ar
    15    21    22   ar
    16    22    26    1
    17    26    27    1
    18    26    28    1
    19    26    29    1
    20    22    23   ar
    21    23    24   ar
    22    24    30    1
    23    30    31    1
    24    30    32    1
    25    30    33    1
    26    24    25   ar
    27     8     9   ar
    28     9    10   ar
    29    14    15   ar
    30    15    16   ar
    31    16    17   ar
    32    17    12   ar
    33    10     5   ar
    34    25    20   ar
    35     1     4    1
@<TRIPOS>MOLECULE
*****
 33 35 0 0 0
SMALL
GASTEIGER

@<TRIPOS>ATOM
      1 N          63.2044   87.5696   13.9764 N.am    1  UNL1       -0.2837
      2 C          64.0716   86.5120   14.5923 C.2     1  UNL1        0.2297
      3 O          65.5292   86.7790   14.8250 O.2     1  UNL1       -0.2744
      4 H          62.2477   87.3944   13.8237 H       1  UNL1        0.1549
      5 C          64.9754   91.5435   12.8266 C.ar    1  UNL1        0.0002
      6 C          63.9879   90.8717   11.9191 C.ar    1  UNL1        0.0013
      7 C          63.3976   89.5471   12.3023 C.ar    1  UNL1        0.0147
      8 C          63.7947   88.8942   13.5931 C.ar    1  UNL1        0.0503
      9 C          64.7822   89.5660   14.5006 C.ar    1  UNL1        0.0147
     10 C          65.3725   90.8907   14.1173 C.ar    1  UNL1        0.0013
     11 C          66.2750   95.0031    9.1739 C.3     1  UNL1        0.0521
     12 C          66.2155   94.5979   10.6169 C.ar    1  UNL1        0.0594
     13 C          65.6252   93.2733   11.0002 C.ar    1  UNL1        0.0147
     14 C          65.5657   92.8681   12.4432 C.ar    1  UNL1        0.0027
     15 C          66.0964   93.7876   13.5029 C.ar    1  UNL1        0.0207
     16 C          66.6867   95.1121   13.1196 C.ar    1  UNL1        0.0984
     17 N          66.7463   95.5173   11.6766 N.ar    1  UNL1       -0.2481
     18 C          63.4813   85.1874   14.9756 C.3     1  UNL1        0.0990
     19 C          63.1888   84.8851   16.4154 C.3     1  UNL1        0.0143
     20 C          63.1835   84.1651   13.9190 C.ar    1  UNL1       -0.0140
     21 C          63.4895   84.4618   12.4809 C.ar    1  UNL1        0.0000
     22 C          63.1917   83.4395   11.4244 C.ar    1  UNL1        0.0711
     23 C          62.5878   82.1205   11.8061 C.ar    1  UNL1        0.0077
     24 C          62.2818   81.8239   13.2442 C.ar    1  UNL1        0.0711
     25 C          62.5796   82.8462   14.3007 C.ar    1  UNL1        0.0000
     26 C          63.4977   83.7362    9.9862 C.3     1  UNL1        0.4186
     27 F          63.8037   84.0328    8.5481 F       1  UNL1       -0.1659
     28 F          62.6955   85.0004   10.0763 F       1  UNL1       -0.1659
     29 F          64.3000   82.4720    9.8961 F       1  UNL1       -0.1659
     30 C          61.6779   80.5049   13.6259 C.3     1  UNL1        0.4186
     31 F          61.0741   79.1859   14.0076 F       1  UNL1       -0.1659
     32 F          62.6008   79.8063   12.6718 F       1  UNL1       -0.1659
     33 F          60.7551   81.2035   14.5800 F       1  UNL1       -0.1659
@<TRIPOS>BOND
     1    11    12    1
     2    12    13   ar
     3    13    14   ar
     4    14     5    1
     5     5     6   ar
     6     6     7   ar
     7     7     8   ar
     8     8     1    1
     9     1     2   am
    10     2     3    2
    11     2    18    1
    12    18    19    1
    13    18    20    1
    14    20    21   ar
    15    21    22   ar
    16    22    26    1
    17    26    27    1
    18    26    28    1
    19    26    29    1
    20    22    23   ar
    21    23    24   ar
    22    24    30    1
    23    30    31    1
    24    30    32    1
    25    30    33    1
    26    24    25   ar
    27     8     9   ar
    28     9    10   ar
    29    14    15   ar
    30    15    16   ar
    31    16    17   ar
    32    17    12   ar
    33    10     5   ar
    34    25    20   ar
    35     1     4    1
@<TRIPOS>MOLECULE
*****
 33 35 0 0 0
SMALL
GASTEIGER

@<TRIPOS>ATOM
      1 N          63.1539   87.5525   13.8701 N.am    1  UNL1       -0.2837
      2 C          63.9917   86.5211   14.5661 C.2     1  UNL1        0.2297
      3 O          65.4242   86.8176   14.8974 O.2     1  UNL1       -0.2744
      4 H          62.2136   87.3579   13.6526 H       1  UNL1        0.1549
      5 C          64.9382   91.5361   12.7759 C.ar    1  UNL1        0.0002
      6 C          63.9762   90.8633   11.8422 C.ar    1  UNL1        0.0013
      7 C          63.3814   89.5354   12.2069 C.ar    1  UNL1        0.0147
      8 C          63.7486   88.8803   13.5054 C.ar    1  UNL1        0.0503
      9 C          64.7107   89.5531   14.4391 C.ar    1  UNL1        0.0147
     10 C          65.3054   90.8810   14.0744 C.ar    1  UNL1        0.0013
     11 C          66.2394   95.0469    9.1730 C.3     1  UNL1        0.0521
     12 C          66.1836   94.6194   10.6097 C.ar    1  UNL1        0.0594
     13 C          65.5888   93.2915   10.9745 C.ar    1  UNL1        0.0147
     14 C          65.5330   92.8640   12.4112 C.ar    1  UNL1        0.0027
     15 C          66.0719   93.7643   13.4831 C.ar    1  UNL1        0.0207
     16 C          66.6666   95.0921   13.1183 C.ar    1  UNL1        0.0984
     17 N          66.7225   95.5196   11.6816 N.ar    1  UNL1       -0.2481
     18 C          63.3969   85.1933   14.9308 C.3     1  UNL1        0.0990
     19 C          63.0571   84.8908   16.3601 C.3     1  UNL1        0.0143
     20 C          63.1418   84.1679   13.8661 C.ar    1  UNL1       -0.0140
     21 C          62.5849   82.8251   14.2360 C.ar    1  UNL1        0.0000
     22 C          62.3299   81.7998   13.1713 C.ar    1  UNL1        0.0711
     23 C          62.6317   82.1172   11.7367 C.ar    1  UNL1        0.0077
     24 C          63.1885   83.4599   11.3667 C.ar    1  UNL1        0.0711
     25 C          63.4436   84.4853   12.4314 C.ar    1  UNL1        0.0000
     26 C          61.7730   80.4570   13.5413 C.3     1  UNL1        0.4186
     27 F          61.2161   79.1142   13.9112 F       1  UNL1       -0.1659
     28 F          60.9598   81.0939   14.6289 F       1  UNL1       -0.1659
     29 F          62.5863   79.8200   12.4537 F       1  UNL1       -0.1659
     30 C          63.4903   83.7773    9.9321 C.3     1  UNL1        0.4186
     31 F          63.7921   84.0947    8.4975 F       1  UNL1       -0.1659
     32 F          62.6211   84.9967   10.0190 F       1  UNL1       -0.1659
     33 F          64.3596   82.5580    9.8452 F       1  UNL1       -0.1659
@<TRIPOS>BOND
     1    11    12    1
     2    12    13   ar
     3    13    14   ar
     4    14     5    1
     5     5     6   ar
     6     6     7   ar
     7     7     8   ar
     8     8     1    1
     9     1     2   am
    10     2     3    2
    11     2    18    1
    12    18    19    1
    13    18    20    1
    14    20    21   ar
    15    21    22   ar
    16    22    26    1
    17    26    27    1
    18    26    28    1
    19    26    29    1
    20    22    23   ar
    21    23    24   ar
    22    24    30    1
    23    30    31    1
    24    30    32    1
    25    30    33    1
    26    24    25   ar
    27     8     9   ar
    28     9    10   ar
    29    14    15   ar
    30    15    16   ar
    31    16    17   ar
    32    17    12   ar
    33    10     5   ar
    34    25    20   ar
    35     1     4    1
@<TRIPOS>MOLECULE
*****
 33 35 0 0 0
SMALL
GASTEIGER

@<TRIPOS>ATOM
      1 N          64.0519   90.3336   12.9592 N.am    1  UNL1       -0.2837
      2 C          63.5461   90.4494   14.3666 C.2     1  UNL1        0.2297
      3 O          62.2774   89.7565   14.7670 O.2     1  UNL1       -0.2744
      4 H          64.8846   90.7884   12.6964 H       1  UNL1        0.1549
      5 C          61.7634   87.9076    9.9381 C.ar    1  UNL1        0.0002
      6 C          61.9416   89.3831    9.7353 C.ar    1  UNL1        0.0013
      7 C          62.7045   90.1917   10.7423 C.ar    1  UNL1        0.0147
      8 C          63.2891   89.5249   11.9522 C.ar    1  UNL1        0.0503
      9 C          63.1108   88.0494   12.1550 C.ar    1  UNL1        0.0147
     10 C          62.3479   87.2407   11.1479 C.ar    1  UNL1        0.0013
     11 C          61.6551   84.2218    6.2770 C.3     1  UNL1        0.0521
     12 C          60.9464   85.2560    7.1005 C.ar    1  UNL1        0.0594
     13 C          61.7092   86.0647    8.1076 C.ar    1  UNL1        0.0147
     14 C          61.0005   87.0989    8.9310 C.ar    1  UNL1        0.0027
     15 C          59.5290   87.3245    8.7475 C.ar    1  UNL1        0.0207
     16 C          58.7662   86.5158    7.7404 C.ar    1  UNL1        0.0984
     17 N          59.4749   85.4816    6.9169 N.ar    1  UNL1       -0.2481
     18 C          64.3089   91.2581   15.3736 C.3     1  UNL1        0.0990
     19 C          63.9423   91.1861   16.8263 C.3     1  UNL1        0.0143
     20 C          65.4384   92.1388   14.9279 C.ar    1  UNL1       -0.0140
     21 C          66.6242   92.3481   15.8223 C.ar    1  UNL1        0.0000
     22 C          67.7536   93.2288   15.3766 C.ar    1  UNL1        0.0711
     23 C          67.6973   93.9002   14.0364 C.ar    1  UNL1        0.0077
     24 C          66.5115   93.6909   13.1420 C.ar    1  UNL1        0.0711
     25 C          65.3821   92.8102   13.5877 C.ar    1  UNL1        0.0000
     26 C          68.9395   93.4381   16.2711 C.3     1  UNL1        0.4186
     27 F          70.1253   93.6474   17.1655 F       1  UNL1       -0.1659
     28 F          69.0718   91.9539   16.4429 F       1  UNL1       -0.1659
     29 F          68.8071   94.9223   16.0992 F       1  UNL1       -0.1659
     30 C          66.4552   94.3622   11.8018 C.3     1  UNL1        0.4186
     31 F          66.3989   95.0336   10.4616 F       1  UNL1       -0.1659
     32 F          66.1226   95.6643   12.4681 F       1  UNL1       -0.1659
     33 F          66.7877   93.0601   11.1355 F       1  UNL1       -0.1659
@<TRIPOS>BOND
     1    11    12    1
     2    12    13   ar
     3    13    14   ar
     4    14     5    1
     5     5     6   ar
     6     6     7   ar
     7     7     8   ar
     8     8     1    1
     9     1     2   am
    10     2     3    2
    11     2    18    1
    12    18    19    1
    13    18    20    1
    14    20    21   ar
    15    21    22   ar
    16    22    26    1
    17    26    27    1
    18    26    28    1
    19    26    29    1
    20    22    23   ar
    21    23    24   ar
    22    24    30    1
    23    30    31    1
    24    30    32    1
    25    30    33    1
    26    24    25   ar
    27     8     9   ar
    28     9    10   ar
    29    14    15   ar
    30    15    16   ar
    31    16    17   ar
    32    17    12   ar
    33    10     5   ar
    34    25    20   ar
    35     1     4    1
@<TRIPOS>MOLECULE
*****
 33 35 0 0 0
SMALL
GASTEIGER

@<TRIPOS>ATOM
      1 N          58.7972   89.7326    6.4673 N.am    1  UNL1       -0.2837
      2 C          59.5500   90.5941    5.4972 C.2     1  UNL1        0.2297
      3 O          61.0478   90.5321    5.4447 O.2     1  UNL1       -0.2744
      4 H          57.8142   89.7733    6.5017 H       1  UNL1        0.1549
      5 C          61.0321   86.9620    9.2203 C.ar    1  UNL1        0.0002
      6 C          61.0545   88.4417    9.4653 C.ar    1  UNL1        0.0013
      7 C          60.3096   89.3652    8.5477 C.ar    1  UNL1        0.0147
      8 C          59.5422   88.8091    7.3849 C.ar    1  UNL1        0.0503
      9 C          59.5198   87.3294    7.1399 C.ar    1  UNL1        0.0147
     10 C          60.2648   86.4058    8.0576 C.ar    1  UNL1        0.0013
     11 C          64.2870   82.9722    9.9182 C.3     1  UNL1        0.0521
     12 C          63.4046   84.0436   10.4869 C.ar    1  UNL1        0.0594
     13 C          62.6596   84.9671    9.5693 C.ar    1  UNL1        0.0147
     14 C          61.7772   86.0385   10.1380 C.ar    1  UNL1        0.0027
     15 C          61.6397   86.1863   11.6243 C.ar    1  UNL1        0.0207
     16 C          62.3847   85.2628   12.5419 C.ar    1  UNL1        0.0984
     17 N          63.2671   84.1914   11.9732 N.ar    1  UNL1       -0.2481
     18 C          58.8051   91.5176    4.5796 C.3     1  UNL1        0.0990
     19 C          57.3611   91.8296    4.8398 C.3     1  UNL1        0.0143
     20 C          59.5041   92.1292    3.4016 C.ar    1  UNL1       -0.0140
     21 C          60.9912   92.3231    3.4297 C.ar    1  UNL1        0.0000
     22 C          61.6901   92.9346    2.2518 C.ar    1  UNL1        0.0711
     23 C          60.9018   93.3523    1.0458 C.ar    1  UNL1        0.0077
     24 C          59.4147   93.1585    1.0178 C.ar    1  UNL1        0.0711
     25 C          58.7158   92.5469    2.1957 C.ar    1  UNL1        0.0000
     26 C          63.1773   93.1285    2.2797 C.3     1  UNL1        0.4186
     27 F          64.6644   93.3224    2.3077 F       1  UNL1       -0.1659
     28 F          63.3364   91.8076    2.9724 F       1  UNL1       -0.1659
     29 F          63.0181   94.4494    1.5871 F       1  UNL1       -0.1659
     30 C          58.6265   93.5762   -0.1881 C.3     1  UNL1        0.4186
     31 F          57.8383   93.9939   -1.3940 F       1  UNL1       -0.1659
     32 F          58.6215   92.1578   -0.6761 F       1  UNL1       -0.1659
     33 F          58.6315   94.9945    0.2999 F       1  UNL1       -0.1659
@<TRIPOS>BOND
     1    11    12    1
     2    12    13   ar
     3    13    14   ar
     4    14     5    1
     5     5     6   ar
     6     6     7   ar
     7     7     8   ar
     8     8     1    1
     9     1     2   am
    10     2     3    2
    11     2    18    1
    12    18    19    1
    13    18    20    1
    14    20    21   ar
    15    21    22   ar
    16    22    26    1
    17    26    27    1
    18    26    28    1
    19    26    29    1
    20    22    23   ar
    21    23    24   ar
    22    24    30    1
    23    30    31    1
    24    30    32    1
    25    30    33    1
    26    24    25   ar
    27     8     9   ar
    28     9    10   ar
    29    14    15   ar
    30    15    16   ar
    31    16    17   ar
    32    17    12   ar
    33    10     5   ar
    34    25    20   ar
    35     1     4    1
