@<TRIPOS>MOLECULE
*****
 33 35 0 0 0
SMALL
GASTEIGER

@<TRIPOS>ATOM
      1 C          65.9881   92.7639   14.2582 C.3     1  UNL1        0.0796
      2 C          66.4811   93.9345   13.4604 C.3     1  UNL1        0.0178
      3 C          66.0882   94.0795   12.0201 C.3     1  UNL1        0.0030
      4 C          65.2021   93.0538   11.3775 C.3     1  UNL1        0.0216
      5 C          64.7091   91.8832   12.1753 C.3     1  UNL1        0.1232
      6 N          65.1021   91.7382   13.6156 N.3     1  UNL1       -0.1546
      7 C          67.8217   92.4222   16.0667 C.3     1  UNL1        0.0014
      8 C          66.3810   92.6190   15.6985 C.3     1  UNL1        0.0164
      9 C          65.3333   92.6708   16.7707 C.3     1  UNL1        0.0014
     10 S          64.6090   90.5675   14.4134 S.O2    1  UNL1        0.0633
     11 O          63.2913   91.2566   14.6102 O.2     1  UNL1       -0.1528
     12 O          65.9267   89.8785   14.2166 O.2     1  UNL1       -0.1528
     13 C          64.1159   89.3969   15.2111 C.ar    1  UNL1        0.1223
     14 C          63.2390   89.6204   16.4074 C.ar    1  UNL1        0.0208
     15 C          62.7459   88.4496   17.2051 C.ar    1  UNL1        0.0128
     16 C          63.1299   87.0554   16.8066 C.ar    1  UNL1        0.0578
     17 CL         62.6369   85.8848   17.6043 Cl      1  UNL1       -0.0822
     18 C          64.0068   86.8319   15.6104 C.ar    1  UNL1        0.0128
     19 C          64.4999   88.0026   14.8126 C.ar    1  UNL1        0.0208
     20 C          63.8230   90.8574   11.5327 C.3     1  UNL1        0.2276
     21 O          62.3358   90.9323   11.7131 O.3     1  UNL1       -0.4330
     22 C          61.4437   89.9615   10.9977 C.2     1  UNL1        0.4050
     23 O          60.2833   90.4637   10.1907 O.2     1  UNL1       -0.2262
     24 N          61.7120   88.4886   11.0893 N.am    1  UNL1       -0.2432
     25 C          62.8724   87.9863   11.8963 C.3     1  UNL1        0.1141
     26 C          63.1407   86.5134   11.9879 C.3     1  UNL1        0.0941
     27 N          62.2486   85.5426   11.2725 N.3     1  UNL1       -0.2676
     28 C          61.0882   86.0448   10.4655 C.3     1  UNL1        0.0941
     29 C          60.8199   87.5179   10.3740 C.3     1  UNL1        0.1141
     30 C          62.5168   84.0697   11.3641 C.3     1  UNL1        0.1043
     31 C          63.7746   83.5755   12.0151 C.3     1  UNL1        0.1544
     32 O          64.9040   83.0626   11.1717 O.3     1  UNL1       -0.3805
     33 H          64.6264   82.2514   10.7182 H       1  UNL1        0.2105
@<TRIPOS>BOND
     1     7     8    1
     2     8     9    1
     3     1     8    1
     4     1     2    1
     5     2     3    1
     6     3     4    1
     7     4     5    1
     8     5    20    1
     9    20    21    1
    10    21    22    1
    11    22    23    2
    12    22    24   am
    13    24    25    1
    14    25    26    1
    15    26    27    1
    16    27    30    1
    17    30    31    1
    18    31    32    1
    19    27    28    1
    20    28    29    1
    21     5     6    1
    22     6    10    1
    23    10    11    2
    24    10    12    2
    25    10    13    1
    26    13    14   ar
    27    14    15   ar
    28    15    16   ar
    29    16    17    1
    30    16    18   ar
    31    18    19   ar
    32     6     1    1
    33    19    13   ar
    34    29    24    1
    35    32    33    1
@<TRIPOS>MOLECULE
*****
 33 35 0 0 0
SMALL
GASTEIGER

@<TRIPOS>ATOM
      1 C          60.6479   87.8186    8.8927 C.3     1  UNL1        0.0796
      2 C          60.1373   89.1536    8.4378 C.3     1  UNL1        0.0178
      3 C          60.5335   90.3988    9.1744 C.3     1  UNL1        0.0030
      4 C          61.4402   90.3090   10.3659 C.3     1  UNL1        0.0216
      5 C          61.9508   88.9739   10.8208 C.3     1  UNL1        0.1232
      6 N          61.5547   87.7287   10.0842 N.3     1  UNL1       -0.1546
      7 C          61.3065   85.6637    7.5993 C.3     1  UNL1        0.0014
      8 C          60.2518   86.5734    8.1561 C.3     1  UNL1        0.0164
      9 C          58.8010   86.2378    7.9763 C.3     1  UNL1        0.0014
     10 S          62.0653   86.3937   10.5392 S.O2    1  UNL1        0.0633
     11 O          63.1433   86.4511    9.4978 O.2     1  UNL1       -0.1528
     12 O          60.9873   86.3363   11.5806 O.2     1  UNL1       -0.1528
     13 C          62.5759   85.0587   10.9941 C.ar    1  UNL1        0.1223
     14 C          63.2940   84.1619   10.0297 C.ar    1  UNL1        0.0208
     15 C          63.8046   82.8269   10.4847 C.ar    1  UNL1        0.0128
     16 C          63.5971   82.3887   11.9042 C.ar    1  UNL1        0.0578
     17 CL         64.1077   81.0537   12.3591 Cl      1  UNL1       -0.0822
     18 C          62.8791   83.2854   12.8687 C.ar    1  UNL1        0.0128
     19 C          62.3685   84.6204   12.4137 C.ar    1  UNL1        0.0208
     20 C          62.8576   88.8841   12.0123 C.3     1  UNL1        0.2276
     21 O          62.6556   89.8042   13.1796 O.3     1  UNL1       -0.4330
     22 C          63.8257   90.5327   13.7717 C.2     1  UNL1        0.4050
     23 O          64.2018   90.3071   15.2061 O.2     1  UNL1       -0.2262
     24 N          64.6195   91.4866   12.9293 N.am    1  UNL1       -0.2432
     25 C          64.2434   91.7122   11.4948 C.3     1  UNL1        0.1141
     26 C          65.0373   92.6662   10.6524 C.3     1  UNL1        0.0941
     27 N          66.2073   93.3946   11.2444 N.3     1  UNL1       -0.2676
     28 C          66.5834   93.1691   12.6789 C.3     1  UNL1        0.0941
     29 C          65.7895   92.2150   13.5213 C.3     1  UNL1        0.1141
     30 C          67.0011   94.3486   10.4020 C.3     1  UNL1        0.1043
     31 C          67.9546   93.8232    9.3701 C.3     1  UNL1        0.1544
     32 O          69.2994   93.3053    9.7862 O.3     1  UNL1       -0.3805
     33 H          69.8309   94.0346   10.1419 H       1  UNL1        0.2105
@<TRIPOS>BOND
     1     7     8    1
     2     8     9    1
     3     1     8    1
     4     1     2    1
     5     2     3    1
     6     3     4    1
     7     4     5    1
     8     5    20    1
     9    20    21    1
    10    21    22    1
    11    22    23    2
    12    22    24   am
    13    24    25    1
    14    25    26    1
    15    26    27    1
    16    27    30    1
    17    30    31    1
    18    31    32    1
    19    27    28    1
    20    28    29    1
    21     5     6    1
    22     6    10    1
    23    10    11    2
    24    10    12    2
    25    10    13    1
    26    13    14   ar
    27    14    15   ar
    28    15    16   ar
    29    16    17    1
    30    16    18   ar
    31    18    19   ar
    32     6     1    1
    33    19    13   ar
    34    29    24    1
    35    32    33    1
@<TRIPOS>MOLECULE
*****
 33 35 0 0 0
SMALL
GASTEIGER

@<TRIPOS>ATOM
      1 C          65.9403   92.4803   13.7326 C.3     1  UNL1        0.0796
      2 C          66.3921   93.5771   12.8146 C.3     1  UNL1        0.0178
      3 C          65.8427   93.6631   11.4214 C.3     1  UNL1        0.0030
      4 C          64.8415   92.6522   10.9464 C.3     1  UNL1        0.0216
      5 C          64.3897   91.5555   11.8644 C.3     1  UNL1        0.1232
      6 N          64.9391   91.4695   13.2576 N.3     1  UNL1       -0.1546
      7 C          65.6294   92.7698   16.2957 C.3     1  UNL1        0.0014
      8 C          66.4897   92.3944   15.1257 C.3     1  UNL1        0.0164
      9 C          67.8994   91.9329   15.3489 C.3     1  UNL1        0.0014
     10 S          64.4872   90.3726   14.1756 S.O2    1  UNL1        0.0633
     11 O          65.6627   89.5394   13.7588 O.2     1  UNL1       -0.1528
     12 O          63.3116   91.2059   14.5925 O.2     1  UNL1       -0.1528
     13 C          64.0353   89.2759   15.0937 C.ar    1  UNL1        0.1223
     14 C          64.2954   87.8428   14.7351 C.ar    1  UNL1        0.0208
     15 C          63.8434   86.7460   15.6532 C.ar    1  UNL1        0.0128
     16 C          63.1314   87.0823   16.9298 C.ar    1  UNL1        0.0578
     17 CL         62.6795   85.9855   17.8478 Cl      1  UNL1       -0.0822
     18 C          62.8713   88.5154   17.2884 C.ar    1  UNL1        0.0128
     19 C          63.3232   89.6122   16.3704 C.ar    1  UNL1        0.0208
     20 C          63.3884   90.5446   11.3894 C.3     1  UNL1        0.2276
     21 O          62.0050   90.5295   11.9690 O.3     1  UNL1       -0.4330
     22 C          60.8272   90.2258   11.0911 C.2     1  UNL1        0.4050
     23 O          59.6201   91.1157   11.1213 O.2     1  UNL1       -0.2262
     24 N          60.8566   89.0324   10.1830 N.am    1  UNL1       -0.2432
     25 C          62.0637   88.1425   10.1528 C.3     1  UNL1        0.1141
     26 C          62.0931   86.9490    9.2447 C.3     1  UNL1        0.0941
     27 N          60.9153   86.6453    8.3668 N.3     1  UNL1       -0.2676
     28 C          59.7082   87.5352    8.3970 C.3     1  UNL1        0.0941
     29 C          59.6789   88.7288    9.3052 C.3     1  UNL1        0.1141
     30 C          60.9447   85.4518    7.4587 C.3     1  UNL1        0.1043
     31 C          62.2569   84.9104    6.9739 C.3     1  UNL1        0.1544
     32 O          62.3607   84.3125    5.6021 O.3     1  UNL1       -0.3805
     33 H          61.8263   83.5041    5.5604 H       1  UNL1        0.2105
@<TRIPOS>BOND
     1     7     8    1
     2     8     9    1
     3     1     8    1
     4     1     2    1
     5     2     3    1
     6     3     4    1
     7     4     5    1
     8     5    20    1
     9    20    21    1
    10    21    22    1
    11    22    23    2
    12    22    24   am
    13    24    25    1
    14    25    26    1
    15    26    27    1
    16    27    30    1
    17    30    31    1
    18    31    32    1
    19    27    28    1
    20    28    29    1
    21     5     6    1
    22     6    10    1
    23    10    11    2
    24    10    12    2
    25    10    13    1
    26    13    14   ar
    27    14    15   ar
    28    15    16   ar
    29    16    17    1
    30    16    18   ar
    31    18    19   ar
    32     6     1    1
    33    19    13   ar
    34    29    24    1
    35    32    33    1
@<TRIPOS>MOLECULE
*****
 33 35 0 0 0
SMALL
GASTEIGER

@<TRIPOS>ATOM
      1 C          63.4902   85.3303   12.6368 C.3     1  UNL1        0.0796
      2 C          64.3640   84.9682   13.8010 C.3     1  UNL1        0.0178
      3 C          64.7992   86.0272   14.7701 C.3     1  UNL1        0.0030
      4 C          64.3607   87.4483   14.5750 C.3     1  UNL1        0.0216
      5 C          63.4870   87.8104   13.4108 C.3     1  UNL1        0.1232
      6 N          63.0517   86.7515   12.4417 N.3     1  UNL1       -0.1546
      7 C          62.2741   83.0861   12.1528 C.3     1  UNL1        0.0014
      8 C          63.0550   84.2714   11.6677 C.3     1  UNL1        0.0164
      9 C          63.4006   84.3976   10.2136 C.3     1  UNL1        0.0014
     10 S          62.1779   87.1136   11.2775 S.O2    1  UNL1        0.0633
     11 O          63.3294   87.8293   10.6358 O.2     1  UNL1       -0.1528
     12 O          61.0264   86.3980   11.9192 O.2     1  UNL1       -0.1528
     13 C          61.3041   87.4758   10.1133 C.ar    1  UNL1        0.1223
     14 C          60.6931   86.3964    9.2698 C.ar    1  UNL1        0.0208
     15 C          59.8193   86.7586    8.1056 C.ar    1  UNL1        0.0128
     16 C          59.5565   88.2001    7.7850 C.ar    1  UNL1        0.0578
     17 CL         58.6827   88.5623    6.6208 Cl      1  UNL1       -0.0822
     18 C          60.1675   89.2795    8.6285 C.ar    1  UNL1        0.0128
     19 C          61.0413   88.9174    9.7926 C.ar    1  UNL1        0.0208
     20 C          63.0484   89.2316   13.2156 C.3     1  UNL1        0.2276
     21 O          63.0664   90.1875   14.3714 O.3     1  UNL1       -0.4330
     22 C          64.2368   91.1050   14.5677 C.2     1  UNL1        0.4050
     23 O          64.7883   91.3332   15.9438 O.2     1  UNL1       -0.2262
     24 N          64.8556   91.7943   13.3879 N.am    1  UNL1       -0.2432
     25 C          64.3040   91.5662   12.0118 C.3     1  UNL1        0.1141
     26 C          64.9228   92.2554   10.8320 C.3     1  UNL1        0.0941
     27 N          66.0932   93.1730   11.0283 N.3     1  UNL1       -0.2676
     28 C          66.6447   93.4012   12.4044 C.3     1  UNL1        0.0941
     29 C          66.0259   92.7118   13.5843 C.3     1  UNL1        0.1141
     30 C          66.7119   93.8623    9.8485 C.3     1  UNL1        0.1043
     31 C          67.9056   93.2596    9.1689 C.3     1  UNL1        0.1544
     32 O          69.2692   93.4097    9.7754 O.3     1  UNL1       -0.3805
     33 H          69.5286   94.3443    9.7604 H       1  UNL1        0.2105
@<TRIPOS>BOND
     1     7     8    1
     2     8     9    1
     3     1     8    1
     4     1     2    1
     5     2     3    1
     6     3     4    1
     7     4     5    1
     8     5    20    1
     9    20    21    1
    10    21    22    1
    11    22    23    2
    12    22    24   am
    13    24    25    1
    14    25    26    1
    15    26    27    1
    16    27    30    1
    17    30    31    1
    18    31    32    1
    19    27    28    1
    20    28    29    1
    21     5     6    1
    22     6    10    1
    23    10    11    2
    24    10    12    2
    25    10    13    1
    26    13    14   ar
    27    14    15   ar
    28    15    16   ar
    29    16    17    1
    30    16    18   ar
    31    18    19   ar
    32     6     1    1
    33    19    13   ar
    34    29    24    1
    35    32    33    1
@<TRIPOS>MOLECULE
*****
 33 35 0 0 0
SMALL
GASTEIGER

@<TRIPOS>ATOM
      1 C          60.4818   87.5836    8.3741 C.3     1  UNL1        0.0796
      2 C          59.8692   88.8182    7.7820 C.3     1  UNL1        0.0178
      3 C          60.1353   90.1583    8.4010 C.3     1  UNL1        0.0030
      4 C          61.0141   90.2640    9.6120 C.3     1  UNL1        0.0216
      5 C          61.6267   89.0294   10.2040 C.3     1  UNL1        0.1232
      6 N          61.3606   87.6893    9.5851 N.3     1  UNL1       -0.1546
      7 C          61.3539   85.4226    7.2255 C.3     1  UNL1        0.0014
      8 C          60.2156   86.2435    7.7551 C.3     1  UNL1        0.0164
      9 C          58.8113   85.7242    7.6657 C.3     1  UNL1        0.0014
     10 S          61.9732   86.4547   10.1772 S.O2    1  UNL1        0.0633
     11 O          60.8791   86.4031   11.2019 O.2     1  UNL1       -0.1528
     12 O          63.0674   86.5063    9.1524 O.2     1  UNL1       -0.1528
     13 C          62.5859   85.2202   10.7692 C.ar    1  UNL1        0.1223
     14 C          63.3573   84.2738    9.8978 C.ar    1  UNL1        0.0208
     15 C          63.9700   83.0392   10.4899 C.ar    1  UNL1        0.0128
     16 C          63.8113   82.7511   11.9533 C.ar    1  UNL1        0.0578
     17 CL         64.4240   81.5166   12.5454 Cl      1  UNL1       -0.0822
     18 C          63.0399   83.6974   12.8247 C.ar    1  UNL1        0.0128
     19 C          62.4272   84.9319   12.2327 C.ar    1  UNL1        0.0208
     20 C          62.5055   89.1350   11.4151 C.3     1  UNL1        0.2276
     21 O          62.6747   90.4555   12.1062 O.3     1  UNL1       -0.4330
     22 C          63.0942   90.5004   13.5457 C.2     1  UNL1        0.4050
     23 O          62.3094   89.7483   14.5794 O.2     1  UNL1       -0.2262
     24 N          64.2985   91.2972   13.9514 N.am    1  UNL1       -0.2432
     25 C          65.0833   92.0493   12.9177 C.3     1  UNL1        0.1141
     26 C          66.2876   92.8461   13.3234 C.3     1  UNL1        0.0941
     27 N          66.7071   92.8910   14.7629 N.3     1  UNL1       -0.2676
     28 C          65.9223   92.1390   15.7966 C.3     1  UNL1        0.0941
     29 C          64.7180   91.3421   15.3908 C.3     1  UNL1        0.1141
     30 C          67.9114   93.6879   15.1686 C.3     1  UNL1        0.1043
     31 C          69.2255   92.9999   15.3922 C.3     1  UNL1        0.1544
     32 O          69.9768   92.4220   14.2297 O.3     1  UNL1       -0.3805
     33 H          69.4707   91.6862   13.8512 H       1  UNL1        0.2105
@<TRIPOS>BOND
     1     7     8    1
     2     8     9    1
     3     1     8    1
     4     1     2    1
     5     2     3    1
     6     3     4    1
     7     4     5    1
     8     5    20    1
     9    20    21    1
    10    21    22    1
    11    22    23    2
    12    22    24   am
    13    24    25    1
    14    25    26    1
    15    26    27    1
    16    27    30    1
    17    30    31    1
    18    31    32    1
    19    27    28    1
    20    28    29    1
    21     5     6    1
    22     6    10    1
    23    10    11    2
    24    10    12    2
    25    10    13    1
    26    13    14   ar
    27    14    15   ar
    28    15    16   ar
    29    16    17    1
    30    16    18   ar
    31    18    19   ar
    32     6     1    1
    33    19    13   ar
    34    29    24    1
    35    32    33    1
@<TRIPOS>MOLECULE
*****
 33 35 0 0 0
SMALL
GASTEIGER

@<TRIPOS>ATOM
      1 C          70.3167   70.4700   11.1652 C.3     1  UNL1        0.0796
      2 C          70.4514   70.3041    9.6806 C.3     1  UNL1        0.0178
      3 C          71.6104   70.9250    8.9586 C.3     1  UNL1        0.0030
      4 C          72.6346   71.7118    9.7213 C.3     1  UNL1        0.0216
      5 C          72.4999   71.8777   11.2060 C.3     1  UNL1        0.1232
      6 N          71.3409   71.2568   11.9279 N.3     1  UNL1       -0.1546
      7 C          69.3951   68.7561   12.8866 C.3     1  UNL1        0.0014
      8 C          69.1577   69.8491   11.8872 C.3     1  UNL1        0.0164
      9 C          67.7612   70.3213   11.6097 C.3     1  UNL1        0.0014
     10 S          71.2063   71.4228   13.4127 S.O2    1  UNL1        0.0633
     11 O          72.1331   70.2630   13.6264 O.2     1  UNL1       -0.1528
     12 O          70.2794   72.5826   13.1989 O.2     1  UNL1       -0.1528
     13 C          71.0716   71.5887   14.8973 C.ar    1  UNL1        0.1223
     14 C          70.6281   72.9032   15.4679 C.ar    1  UNL1        0.0208
     15 C          70.4934   73.0691   16.9527 C.ar    1  UNL1        0.0128
     16 C          70.8022   71.9206   17.8668 C.ar    1  UNL1        0.0578
     17 CL         70.6675   72.0866   19.3514 Cl      1  UNL1       -0.0822
     18 C          71.2457   70.6062   17.2962 C.ar    1  UNL1        0.0128
     19 C          71.3804   70.4402   15.8115 C.ar    1  UNL1        0.0208
     20 C          73.5243   72.6645   11.9687 C.3     1  UNL1        0.2276
     21 O          73.6330   74.1471   11.7684 O.3     1  UNL1       -0.4330
     22 C          73.4123   75.0782   12.9235 C.2     1  UNL1        0.4050
     23 O          73.5122   74.5657   14.3297 O.2     1  UNL1       -0.2262
     24 N          73.0917   76.5219   12.6725 N.am    1  UNL1       -0.2432
     25 C          72.9917   77.0344   11.2663 C.3     1  UNL1        0.1141
     26 C          72.6711   78.4780   11.0152 C.3     1  UNL1        0.0941
     27 N          72.4503   79.4092   12.1704 N.3     1  UNL1       -0.2676
     28 C          72.5503   78.8967   13.5766 C.3     1  UNL1        0.0941
     29 C          72.8710   77.4529   13.8276 C.3     1  UNL1        0.1141
     30 C          72.1297   80.8528   11.9193 C.3     1  UNL1        0.1043
     31 C          72.4192   81.4635   10.5802 C.3     1  UNL1        0.1544
     32 O          72.5070   82.9543   10.4389 O.3     1  UNL1       -0.3805
     33 H          71.6372   83.3472   10.6119 H       1  UNL1        0.2105
@<TRIPOS>BOND
     1     7     8    1
     2     8     9    1
     3     1     8    1
     4     1     2    1
     5     2     3    1
     6     3     4    1
     7     4     5    1
     8     5    20    1
     9    20    21    1
    10    21    22    1
    11    22    23    2
    12    22    24   am
    13    24    25    1
    14    25    26    1
    15    26    27    1
    16    27    30    1
    17    30    31    1
    18    31    32    1
    19    27    28    1
    20    28    29    1
    21     5     6    1
    22     6    10    1
    23    10    11    2
    24    10    12    2
    25    10    13    1
    26    13    14   ar
    27    14    15   ar
    28    15    16   ar
    29    16    17    1
    30    16    18   ar
    31    18    19   ar
    32     6     1    1
    33    19    13   ar
    34    29    24    1
    35    32    33    1
@<TRIPOS>MOLECULE
*****
 33 35 0 0 0
SMALL
GASTEIGER

@<TRIPOS>ATOM
      1 C          63.7416   94.9368   -0.2286 C.3     1  UNL1        0.0796
      2 C          64.2580   95.7320   -1.3908 C.3     1  UNL1        0.0178
      3 C          63.3144   96.1965   -2.4603 C.3     1  UNL1        0.0030
      4 C          61.8543   95.8657   -2.3677 C.3     1  UNL1        0.0216
      5 C          61.3379   95.0704   -1.2055 C.3     1  UNL1        0.1232
      6 N          62.2815   94.6059   -0.1360 N.3     1  UNL1       -0.1546
      7 C          64.9452   95.3368    2.0387 C.3     1  UNL1        0.0014
      8 C          64.6852   94.4723    0.8409 C.3     1  UNL1        0.0164
      9 C          65.3687   93.1433    0.7126 C.3     1  UNL1        0.0014
     10 S          61.7649   93.8106    1.0262 S.O2    1  UNL1        0.0633
     11 O          62.0153   92.5406    0.2685 O.2     1  UNL1       -0.1528
     12 O          61.5145   95.0806    1.7840 O.2     1  UNL1       -0.1528
     13 C          61.2484   93.0154    2.1884 C.ar    1  UNL1        0.1223
     14 C          59.8187   93.1588    2.6192 C.ar    1  UNL1        0.0208
     15 C          59.3022   92.3635    3.7814 C.ar    1  UNL1        0.0128
     16 C          60.2153   91.4248    4.5129 C.ar    1  UNL1        0.0578
     17 CL         59.6987   90.6295    5.6750 Cl      1  UNL1       -0.0822
     18 C          61.6449   91.2814    4.0821 C.ar    1  UNL1        0.0128
     19 C          62.1615   92.0766    2.9199 C.ar    1  UNL1        0.0208
     20 C          59.8777   94.7395   -1.1128 C.3     1  UNL1        0.2276
     21 O          59.2016   94.0087   -2.2347 O.3     1  UNL1       -0.4330
     22 C          58.1149   93.0183   -1.9375 C.2     1  UNL1        0.4050
     23 O          57.8141   92.6385   -0.5179 O.2     1  UNL1       -0.2262
     24 N          57.3290   92.4078   -3.0598 N.am    1  UNL1       -0.2432
     25 C          57.6298   92.7877   -4.4794 C.3     1  UNL1        0.1141
     26 C          56.8439   92.1771   -5.6017 C.3     1  UNL1        0.0941
     27 N          55.7572   91.1868   -5.3045 N.3     1  UNL1       -0.2676
     28 C          55.4565   90.8069   -3.8849 C.3     1  UNL1        0.0941
     29 C          56.2424   91.4175   -2.7625 C.3     1  UNL1        0.1141
     30 C          54.9714   90.5762   -6.4268 C.3     1  UNL1        0.1043
     31 C          53.8015   89.6869   -6.1262 C.3     1  UNL1        0.1544
     32 O          54.0269   88.2522   -5.7510 O.3     1  UNL1       -0.3805
     33 H          54.4031   87.7754   -6.5074 H       1  UNL1        0.2105
@<TRIPOS>BOND
     1     7     8    1
     2     8     9    1
     3     1     8    1
     4     1     2    1
     5     2     3    1
     6     3     4    1
     7     4     5    1
     8     5    20    1
     9    20    21    1
    10    21    22    1
    11    22    23    2
    12    22    24   am
    13    24    25    1
    14    25    26    1
    15    26    27    1
    16    27    30    1
    17    30    31    1
    18    31    32    1
    19    27    28    1
    20    28    29    1
    21     5     6    1
    22     6    10    1
    23    10    11    2
    24    10    12    2
    25    10    13    1
    26    13    14   ar
    27    14    15   ar
    28    15    16   ar
    29    16    17    1
    30    16    18   ar
    31    18    19   ar
    32     6     1    1
    33    19    13   ar
    34    29    24    1
    35    32    33    1
@<TRIPOS>MOLECULE
*****
 33 35 0 0 0
SMALL
GASTEIGER

@<TRIPOS>ATOM
      1 C          63.6812   83.8008   12.9717 C.3     1  UNL1        0.0796
      2 C          64.5381   83.3971   14.1347 C.3     1  UNL1        0.0178
      3 C          65.1204   84.4447   15.0367 C.3     1  UNL1        0.0030
      4 C          64.8456   85.8960   14.7757 C.3     1  UNL1        0.0216
      5 C          63.9886   86.2997   13.6128 C.3     1  UNL1        0.1232
      6 N          63.4064   85.2522   12.7108 N.3     1  UNL1       -0.1546
      7 C          63.7085   82.5005   10.7227 C.3     1  UNL1        0.0014
      8 C          63.0990   82.7533   12.0697 C.3     1  UNL1        0.0164
      9 C          61.9072   81.9585   12.5147 C.3     1  UNL1        0.0014
     10 S          62.5494   85.6560   11.5477 S.O2    1  UNL1        0.0633
     11 O          61.4053   85.9181   12.4817 O.2     1  UNL1       -0.1528
     12 O          63.6934   85.3938   10.6137 O.2     1  UNL1       -0.1528
     13 C          61.6924   86.0597   10.3848 C.ar    1  UNL1        0.1223
     14 C          60.5954   87.0649   10.5748 C.ar    1  UNL1        0.0208
     15 C          59.7384   87.4687    9.4117 C.ar    1  UNL1        0.0128
     16 C          59.9785   86.8673    8.0587 C.ar    1  UNL1        0.0578
     17 CL         59.1216   87.2711    6.8957 Cl      1  UNL1       -0.0822
     18 C          61.0756   85.8621    7.8687 C.ar    1  UNL1        0.0128
     19 C          61.9325   85.4583    9.0317 C.ar    1  UNL1        0.0208
     20 C          63.7138   87.7511   13.3517 C.3     1  UNL1        0.2276
     21 O          62.9192   88.5534   14.3391 O.3     1  UNL1       -0.4330
     22 C          63.6132   89.5232   15.2491 C.2     1  UNL1        0.4050
     23 O          63.5711   89.3195   16.7346 O.2     1  UNL1       -0.2262
     24 N          64.3493   90.6966   14.6735 N.am    1  UNL1       -0.2432
     25 C          64.3914   90.9002   13.1879 C.3     1  UNL1        0.1141
     26 C          65.1275   92.0736   12.6123 C.3     1  UNL1        0.0941
     27 N          65.8215   93.0434   13.5223 N.3     1  UNL1       -0.2676
     28 C          65.7793   92.8397   15.0078 C.3     1  UNL1        0.0941
     29 C          65.0432   91.6663   15.5834 C.3     1  UNL1        0.1141
     30 C          66.5575   94.2167   12.9467 C.3     1  UNL1        0.1043
     31 C          66.2536   94.6829   11.5537 C.3     1  UNL1        0.1544
     32 O          67.3369   94.7032   10.5165 O.3     1  UNL1       -0.3805
     33 H          68.0089   95.3575   10.7636 H       1  UNL1        0.2105
@<TRIPOS>BOND
     1     7     8    1
     2     8     9    1
     3     1     8    1
     4     1     2    1
     5     2     3    1
     6     3     4    1
     7     4     5    1
     8     5    20    1
     9    20    21    1
    10    21    22    1
    11    22    23    2
    12    22    24   am
    13    24    25    1
    14    25    26    1
    15    26    27    1
    16    27    30    1
    17    30    31    1
    18    31    32    1
    19    27    28    1
    20    28    29    1
    21     5     6    1
    22     6    10    1
    23    10    11    2
    24    10    12    2
    25    10    13    1
    26    13    14   ar
    27    14    15   ar
    28    15    16   ar
    29    16    17    1
    30    16    18   ar
    31    18    19   ar
    32     6     1    1
    33    19    13   ar
    34    29    24    1
    35    32    33    1
@<TRIPOS>MOLECULE
*****
 33 35 0 0 0
SMALL
GASTEIGER

@<TRIPOS>ATOM
      1 C          62.7485   81.0186   12.4381 C.3     1  UNL1        0.0796
      2 C          62.7391   79.9513   11.3842 C.3     1  UNL1        0.0178
      3 C          63.1865   80.2714    9.9887 C.3     1  UNL1        0.0030
      4 C          63.6433   81.6587    9.6471 C.3     1  UNL1        0.0216
      5 C          63.6527   82.7259   10.7011 C.3     1  UNL1        0.1232
      6 N          63.2052   82.4059   12.0966 N.3     1  UNL1       -0.1546
      7 C          60.8470   80.7815   14.1926 C.3     1  UNL1        0.0014
      8 C          62.3010   80.6986   13.8336 C.3     1  UNL1        0.0164
      9 C          63.3076   80.2957   14.8701 C.3     1  UNL1        0.0014
     10 S          63.2146   83.4733   13.1505 S.O2    1  UNL1        0.0633
     11 O          61.8306   83.8857   12.7452 O.2     1  UNL1       -0.1528
     12 O          64.5986   83.0608   13.5558 O.2     1  UNL1       -0.1528
     13 C          63.2240   84.5405   14.2044 C.ar    1  UNL1        0.1223
     14 C          64.0588   85.7726   14.0167 C.ar    1  UNL1        0.0208
     15 C          64.0682   86.8399   15.0707 C.ar    1  UNL1        0.0128
     16 C          63.2429   86.6752   16.3123 C.ar    1  UNL1        0.0578
     17 CL         63.2523   87.7424   17.3662 Cl      1  UNL1       -0.0822
     18 C          62.4081   85.4431   16.5000 C.ar    1  UNL1        0.0128
     19 C          62.3986   84.3758   15.4461 C.ar    1  UNL1        0.0208
     20 C          64.1094   84.1133   10.3595 C.3     1  UNL1        0.2276
     21 O          64.0704   84.5868    8.9368 O.3     1  UNL1       -0.4330
     22 C          62.7966   85.1327    8.3627 C.2     1  UNL1        0.4050
     23 O          62.3565   84.7218    6.9889 O.2     1  UNL1       -0.2262
     24 N          61.9630   86.0895    9.1624 N.am    1  UNL1       -0.2432
     25 C          62.4031   86.5005   10.5363 C.3     1  UNL1        0.1141
     26 C          61.5695   87.4572   11.3360 C.3     1  UNL1        0.0941
     27 N          60.2957   88.0031   10.7619 N.3     1  UNL1       -0.2676
     28 C          59.8556   87.5922    9.3881 C.3     1  UNL1        0.0941
     29 C          60.6893   86.6353    8.5883 C.3     1  UNL1        0.1141
     30 C          59.4621   88.9599   11.5616 C.3     1  UNL1        0.1043
     31 C          59.7633   90.4289   11.5248 C.3     1  UNL1        0.1544
     32 O          58.6488   91.4262   11.6403 O.3     1  UNL1       -0.3805
     33 H          58.0730   91.3590   10.8626 H       1  UNL1        0.2105
@<TRIPOS>BOND
     1     7     8    1
     2     8     9    1
     3     1     8    1
     4     1     2    1
     5     2     3    1
     6     3     4    1
     7     4     5    1
     8     5    20    1
     9    20    21    1
    10    21    22    1
    11    22    23    2
    12    22    24   am
    13    24    25    1
    14    25    26    1
    15    26    27    1
    16    27    30    1
    17    30    31    1
    18    31    32    1
    19    27    28    1
    20    28    29    1
    21     5     6    1
    22     6    10    1
    23    10    11    2
    24    10    12    2
    25    10    13    1
    26    13    14   ar
    27    14    15   ar
    28    15    16   ar
    29    16    17    1
    30    16    18   ar
    31    18    19   ar
    32     6     1    1
    33    19    13   ar
    34    29    24    1
    35    32    33    1
