@<TRIPOS>MOLECULE
*****
 30 34 0 0 0
SMALL
GASTEIGER

@<TRIPOS>ATOM
      1 C          63.0328   90.4529   12.1820 C.3     1  UNL1        0.3201
      2 C          65.7154   92.5359   12.5438 C.3     1  UNL1        0.1502
      3 C          66.4029   92.4348   13.8732 C.3     1  UNL1        0.0673
      4 C          65.8962   91.4747   14.9084 C.3     1  UNL1        0.1543
      5 O          64.7021   90.6159   14.6142 O.3     1  UNL1       -0.2916
      6 P          64.0147   90.7170   13.2849 P.3     1  UNL1        0.3872
      7 O          63.1671   89.6653   13.9371 O.2     1  UNL1       -0.2539
      8 O          64.5214   91.6771   12.2497 O.3     1  UNL1       -0.2895
      9 C          67.7420   96.3761    8.4030 C.3     1  UNL1        0.0521
     10 C          67.2353   95.4161    9.4382 C.ar    1  UNL1        0.0594
     11 C          67.3462   93.9379    9.2084 C.ar    1  UNL1        0.0145
     12 C          66.8396   92.9778   10.2435 C.ar    1  UNL1        0.0008
     13 C          66.2221   93.4959   11.5086 C.ar    1  UNL1        0.0243
     14 C          66.1112   94.9741   11.7384 C.ar    1  UNL1        0.0965
     15 N          66.6178   95.9342   10.7032 N.ar    1  UNL1       -0.2484
     16 O          61.9781   89.4001   12.3531 O.3     1  UNL1       -0.4630
     17 C          61.5855   88.5361   11.1914 C.ar    1  UNL1        0.1402
     18 C          60.7989   89.1192   10.0551 C.ar    1  UNL1        0.0324
     19 C          60.4063   88.2553    8.8935 C.ar    1  UNL1       -0.0231
     20 C          59.6197   88.8384    7.7572 C.3     1  UNL1        0.0308
     21 C          60.8003   86.8082    8.8681 C.ar    1  UNL1       -0.0292
     22 C          60.4077   85.9442    7.7066 C.3     1  UNL1        0.0304
     23 C          61.5869   86.2251   10.0045 C.ar    1  UNL1       -0.0171
     24 C          61.9795   87.0890   11.1661 C.ar    1  UNL1        0.0479
     25 C          62.7491   86.2412   12.1351 C.ar    1  UNL1        0.0868
     26 N          63.4674   86.2513   13.4520 N.ar    1  UNL1       -0.2365
     27 C          63.9943   84.8695   13.7030 C.ar    1  UNL1        0.1342
     28 S          63.6017   84.0055   12.5414 S.2     1  UNL1       -0.0685
     29 C          62.8321   84.8533   11.5724 C.ar    1  UNL1        0.0308
     30 C          62.1139   84.8432   10.2556 C.3     1  UNL1        0.0606
@<TRIPOS>BOND
     1     9    10    1
     2    10    11   ar
     3    11    12   ar
     4    12    13   ar
     5     2    13    1
     6     2     3    1
     7     3     4    1
     8     4     5    1
     9     5     6    1
    10     6     7    2
    11     6     1    1
    12     1    16    1
    13    16    17    1
    14    17    18   ar
    15    18    19   ar
    16    19    20    1
    17    19    21   ar
    18    21    22    1
    19    21    23   ar
    20    23    24   ar
    21    24    25    1
    22    25    26   ar
    23    26    27   ar
    24    27    28   ar
    25    28    29   ar
    26    29    30    1
    27     6     8    1
    28    13    14   ar
    29    14    15   ar
    30    15    10   ar
    31     8     2    1
    32    24    17   ar
    33    29    25   ar
    34    30    23    1
@<TRIPOS>MOLECULE
*****
 30 34 0 0 0
SMALL
GASTEIGER

@<TRIPOS>ATOM
      1 C          64.3138   87.4014   14.8863 C.3     1  UNL1        0.3201
      2 C          63.0420   84.8703   12.9780 C.3     1  UNL1        0.1502
      3 C          62.5062   83.7110   13.7648 C.3     1  UNL1        0.0673
      4 C          62.5592   83.7334   15.2637 C.3     1  UNL1        0.1543
      5 O          63.1479   84.9150   15.9758 O.3     1  UNL1       -0.2916
      6 P          63.6836   86.0743   15.1890 P.3     1  UNL1        0.3872
      7 O          63.9554   86.5576   16.5829 O.2     1  UNL1       -0.2539
      8 O          63.6307   86.0519   13.6901 O.3     1  UNL1       -0.2895
      9 C          62.8302   84.7807    6.9824 C.3     1  UNL1        0.0521
     10 C          62.8832   84.8031    8.4813 C.ar    1  UNL1        0.0594
     11 C          62.1796   85.8887    9.2405 C.ar    1  UNL1        0.0145
     12 C          62.2325   85.9112   10.7394 C.ar    1  UNL1        0.0008
     13 C          62.9890   84.8479   11.4791 C.ar    1  UNL1        0.0243
     14 C          63.6926   83.7623   10.7199 C.ar    1  UNL1        0.0965
     15 N          63.6397   83.7398    9.2210 N.ar    1  UNL1       -0.2484
     16 O          63.4501   88.5934   14.5979 O.3     1  UNL1       -0.4630
     17 C          63.9894   89.7304   13.7815 C.ar    1  UNL1        0.1402
     18 C          65.2058   90.4758   14.2450 C.ar    1  UNL1        0.0324
     19 C          65.7451   91.6128   13.4288 C.ar    1  UNL1       -0.0231
     20 C          66.9614   92.3581   13.8923 C.3     1  UNL1        0.0308
     21 C          65.0681   92.0044   12.1488 C.ar    1  UNL1       -0.0292
     22 C          65.6073   93.1413   11.3324 C.3     1  UNL1        0.0304
     23 C          63.8517   91.2590   11.6852 C.ar    1  UNL1       -0.0171
     24 C          63.3124   90.1220   12.5016 C.ar    1  UNL1        0.0479
     25 C          62.1060   89.5764   11.7965 C.ar    1  UNL1        0.0868
     26 N          61.0272   88.5365   11.8653 N.ar    1  UNL1       -0.2365
     27 C          60.1542   88.6936   10.6557 C.ar    1  UNL1        0.1342
     28 S          60.6935   89.8306    9.8393 S.2     1  UNL1       -0.0685
     29 C          61.8998   90.3762   10.5444 C.ar    1  UNL1        0.0308
     30 C          62.9786   91.4161   10.4755 C.3     1  UNL1        0.0606
@<TRIPOS>BOND
     1     9    10    1
     2    10    11   ar
     3    11    12   ar
     4    12    13   ar
     5     2    13    1
     6     2     3    1
     7     3     4    1
     8     4     5    1
     9     5     6    1
    10     6     7    2
    11     6     1    1
    12     1    16    1
    13    16    17    1
    14    17    18   ar
    15    18    19   ar
    16    19    20    1
    17    19    21   ar
    18    21    22    1
    19    21    23   ar
    20    23    24   ar
    21    24    25    1
    22    25    26   ar
    23    26    27   ar
    24    27    28   ar
    25    28    29   ar
    26    29    30    1
    27     6     8    1
    28    13    14   ar
    29    14    15   ar
    30    15    10   ar
    31     8     2    1
    32    24    17   ar
    33    29    25   ar
    34    30    23    1
@<TRIPOS>MOLECULE
*****
 30 34 0 0 0
SMALL
GASTEIGER

@<TRIPOS>ATOM
      1 C          64.1866   87.1373   14.1868 C.3     1  UNL1        0.3201
      2 C          64.5591   90.5312   14.2780 C.3     1  UNL1        0.1502
      3 C          64.0724   91.1736   15.5432 C.3     1  UNL1        0.0673
      4 C          63.4826   90.3297   16.6340 C.3     1  UNL1        0.1543
      5 O          63.3795   88.8434   16.4597 O.3     1  UNL1       -0.2916
      6 P          63.8661   88.2011   15.1946 P.3     1  UNL1        0.3872
      7 O          63.3876   86.9877   15.9355 O.2     1  UNL1       -0.2539
      8 O          64.4559   89.0450   14.1038 O.3     1  UNL1       -0.2895
      9 C          66.9183   93.9069    9.9147 C.3     1  UNL1        0.0521
     10 C          66.3285   93.0630   11.0055 C.ar    1  UNL1        0.0594
     11 C          64.9798   92.4333   10.8204 C.ar    1  UNL1        0.0145
     12 C          64.3899   91.5893   11.9112 C.ar    1  UNL1        0.0008
     13 C          65.1489   91.3751   13.1872 C.ar    1  UNL1        0.0243
     14 C          66.4976   92.0049   13.3723 C.ar    1  UNL1        0.0965
     15 N          67.0875   92.8488   12.2815 N.ar    1  UNL1       -0.2484
     16 O          63.1172   86.1891   13.7313 O.3     1  UNL1       -0.4630
     17 C          63.0576   85.7597   12.2953 C.ar    1  UNL1        0.1402
     18 C          63.5915   84.4175   11.8911 C.ar    1  UNL1        0.0324
     19 C          63.5320   83.9880   10.4552 C.ar    1  UNL1       -0.0231
     20 C          64.0659   82.6458   10.0510 C.3     1  UNL1        0.0308
     21 C          62.9385   84.9007    9.4233 C.ar    1  UNL1       -0.0292
     22 C          62.8789   84.4713    7.9874 C.3     1  UNL1        0.0304
     23 C          62.4046   86.2429    9.8275 C.ar    1  UNL1       -0.0171
     24 C          62.4641   86.6725   11.2635 C.ar    1  UNL1        0.0479
     25 C          61.8635   88.0434   11.3626 C.ar    1  UNL1        0.0868
     26 N          61.5291   89.1561   12.3114 N.ar    1  UNL1       -0.2365
     27 C          60.8916   90.2615   11.5230 C.ar    1  UNL1        0.1342
     28 S          60.8320   89.8321   10.0870 S.2     1  UNL1       -0.0685
     29 C          61.4327   88.4612    9.9879 C.ar    1  UNL1        0.0308
     30 C          61.7670   87.3485    9.0391 C.3     1  UNL1        0.0606
@<TRIPOS>BOND
     1     9    10    1
     2    10    11   ar
     3    11    12   ar
     4    12    13   ar
     5     2    13    1
     6     2     3    1
     7     3     4    1
     8     4     5    1
     9     5     6    1
    10     6     7    2
    11     6     1    1
    12     1    16    1
    13    16    17    1
    14    17    18   ar
    15    18    19   ar
    16    19    20    1
    17    19    21   ar
    18    21    22    1
    19    21    23   ar
    20    23    24   ar
    21    24    25    1
    22    25    26   ar
    23    26    27   ar
    24    27    28   ar
    25    28    29   ar
    26    29    30    1
    27     6     8    1
    28    13    14   ar
    29    14    15   ar
    30    15    10   ar
    31     8     2    1
    32    24    17   ar
    33    29    25   ar
    34    30    23    1
@<TRIPOS>MOLECULE
*****
 30 34 0 0 0
SMALL
GASTEIGER

@<TRIPOS>ATOM
      1 C          63.0592   89.7357   14.5442 C.3     1  UNL1        0.3201
      2 C          65.6401   91.9161   14.0438 C.3     1  UNL1        0.1502
      3 C          66.0554   92.6755   15.2690 C.3     1  UNL1        0.0673
      4 C          65.3483   92.4426   16.5713 C.3     1  UNL1        0.1543
      5 O          64.2259   91.4504   16.6483 O.3     1  UNL1       -0.2916
      6 P          63.8106   90.6911   15.4231 P.3     1  UNL1        0.3872
      7 O          62.8426   90.1264   16.4202 O.2     1  UNL1       -0.2539
      8 O          64.5178   90.9240   14.1209 O.3     1  UNL1       -0.2895
      9 C          68.4686   92.8477    8.8350 C.3     1  UNL1        0.0521
     10 C          67.7615   92.6148   10.1373 C.ar    1  UNL1        0.0594
     11 C          66.3058   92.9513   10.2709 C.ar    1  UNL1        0.0145
     12 C          65.5986   92.7184   11.5731 C.ar    1  UNL1        0.0008
     13 C          66.3472   92.1490   12.7416 C.ar    1  UNL1        0.0243
     14 C          67.8028   91.8126   12.6080 C.ar    1  UNL1        0.0965
     15 N          68.5100   92.0454   11.3058 N.ar    1  UNL1       -0.2484
     16 O          63.7531   89.0728   13.3914 O.3     1  UNL1       -0.4630
     17 C          63.5183   87.6181   13.1106 C.ar    1  UNL1        0.1402
     18 C          64.1493   86.5744   13.9837 C.ar    1  UNL1        0.0324
     19 C          63.9146   85.1197   13.7030 C.ar    1  UNL1       -0.0231
     20 C          64.5456   84.0759   14.5761 C.3     1  UNL1        0.0308
     21 C          63.0487   84.7088   12.5491 C.ar    1  UNL1       -0.0292
     22 C          62.8139   83.2542   12.2683 C.3     1  UNL1        0.0304
     23 C          62.4176   85.7526   11.6760 C.ar    1  UNL1       -0.0171
     24 C          62.6524   87.2073   11.9567 C.ar    1  UNL1        0.0479
     25 C          61.9030   88.0043   10.9305 C.ar    1  UNL1        0.0868
     26 N          61.5850   89.3959   10.4698 N.ar    1  UNL1       -0.2365
     27 C          60.6905   89.2939    9.2701 C.ar    1  UNL1        0.1342
     28 S          60.4557   87.8393    8.9893 S.2     1  UNL1       -0.0685
     29 C          61.2051   87.0422   10.0155 C.ar    1  UNL1        0.0308
     30 C          61.5231   85.6506   10.4762 C.3     1  UNL1        0.0606
@<TRIPOS>BOND
     1     9    10    1
     2    10    11   ar
     3    11    12   ar
     4    12    13   ar
     5     2    13    1
     6     2     3    1
     7     3     4    1
     8     4     5    1
     9     5     6    1
    10     6     7    2
    11     6     1    1
    12     1    16    1
    13    16    17    1
    14    17    18   ar
    15    18    19   ar
    16    19    20    1
    17    19    21   ar
    18    21    22    1
    19    21    23   ar
    20    23    24   ar
    21    24    25    1
    22    25    26   ar
    23    26    27   ar
    24    27    28   ar
    25    28    29   ar
    26    29    30    1
    27     6     8    1
    28    13    14   ar
    29    14    15   ar
    30    15    10   ar
    31     8     2    1
    32    24    17   ar
    33    29    25   ar
    34    30    23    1
@<TRIPOS>MOLECULE
*****
 30 34 0 0 0
SMALL
GASTEIGER

@<TRIPOS>ATOM
      1 C          62.8873   89.4232   14.4084 C.3     1  UNL1        0.3201
      2 C          65.4445   91.6745   14.1669 C.3     1  UNL1        0.1502
      3 C          65.6994   92.4586   15.4201 C.3     1  UNL1        0.0673
      4 C          64.8590   92.2182   16.6391 C.3     1  UNL1        0.1543
      5 O          63.7639   91.1937   16.6051 O.3     1  UNL1       -0.2916
      6 P          63.5090   90.4097   15.3519 P.3     1  UNL1        0.3872
      7 O          62.4528   89.8267   16.2434 O.2     1  UNL1       -0.2539
      8 O          64.3494   90.6501   14.1329 O.3     1  UNL1       -0.2895
      9 C          68.8058   92.6361    9.2908 C.3     1  UNL1        0.0521
     10 C          67.9655   92.3957   10.5099 C.ar    1  UNL1        0.0594
     11 C          66.4813   92.6046   10.4508 C.ar    1  UNL1        0.0145
     12 C          65.6409   92.3642   11.6698 C.ar    1  UNL1        0.0008
     13 C          66.2848   91.9149   12.9479 C.ar    1  UNL1        0.0243
     14 C          67.7690   91.7060   13.0070 C.ar    1  UNL1        0.0965
     15 N          68.6094   91.9464   11.7880 N.ar    1  UNL1       -0.2484
     16 O          63.5557   89.1106   13.1024 O.3     1  UNL1       -0.4630
     17 C          62.8035   88.3777   12.0315 C.ar    1  UNL1        0.1402
     18 C          62.0605   89.1446   10.9780 C.ar    1  UNL1        0.0324
     19 C          61.3083   88.4117    9.9070 C.ar    1  UNL1       -0.0231
     20 C          60.5653   89.1786    8.8536 C.3     1  UNL1        0.0308
     21 C          61.2992   86.9118    9.8894 C.ar    1  UNL1       -0.0292
     22 C          60.5470   86.1789    8.8185 C.3     1  UNL1        0.0304
     23 C          62.0422   86.1449   10.9429 C.ar    1  UNL1       -0.0171
     24 C          62.7944   86.8778   12.0139 C.ar    1  UNL1        0.0479
     25 C          63.4298   85.8596   12.9136 C.ar    1  UNL1        0.0868
     26 N          64.2874   85.6834   14.1316 N.ar    1  UNL1       -0.2365
     27 C          64.4579   84.2122   14.3694 C.ar    1  UNL1        0.1342
     28 S          63.7058   83.4792   13.2984 S.2     1  UNL1       -0.0685
     29 C          63.0703   84.4974   12.3987 C.ar    1  UNL1        0.0308
     30 C          62.2128   84.6737   11.1807 C.3     1  UNL1        0.0606
@<TRIPOS>BOND
     1     9    10    1
     2    10    11   ar
     3    11    12   ar
     4    12    13   ar
     5     2    13    1
     6     2     3    1
     7     3     4    1
     8     4     5    1
     9     5     6    1
    10     6     7    2
    11     6     1    1
    12     1    16    1
    13    16    17    1
    14    17    18   ar
    15    18    19   ar
    16    19    20    1
    17    19    21   ar
    18    21    22    1
    19    21    23   ar
    20    23    24   ar
    21    24    25    1
    22    25    26   ar
    23    26    27   ar
    24    27    28   ar
    25    28    29   ar
    26    29    30    1
    27     6     8    1
    28    13    14   ar
    29    14    15   ar
    30    15    10   ar
    31     8     2    1
    32    24    17   ar
    33    29    25   ar
    34    30    23    1
@<TRIPOS>MOLECULE
*****
 30 34 0 0 0
SMALL
GASTEIGER

@<TRIPOS>ATOM
      1 C          63.4378   83.6975   10.6147 C.3     1  UNL1        0.3201
      2 C          62.9866   83.1935   13.9625 C.3     1  UNL1        0.1502
      3 C          62.8219   81.7552   14.3554 C.3     1  UNL1        0.0673
      4 C          62.8633   80.6823   13.3080 C.3     1  UNL1        0.1543
      5 O          63.0694   81.0475   11.8678 O.3     1  UNL1       -0.2916
      6 P          63.2341   82.4858   11.4750 P.3     1  UNL1        0.3872
      7 O          63.3462   81.8336   10.1288 O.2     1  UNL1       -0.2539
      8 O          63.1927   83.5588   12.5224 O.3     1  UNL1       -0.2895
      9 C          62.8211   87.4854   18.1521 C.3     1  UNL1        0.0521
     10 C          62.8624   86.4124   17.1047 C.ar    1  UNL1        0.0594
     11 C          64.1226   86.1709   16.3279 C.ar    1  UNL1        0.0145
     12 C          64.1641   85.0979   15.2805 C.ar    1  UNL1        0.0008
     13 C          62.9453   84.2665   15.0099 C.ar    1  UNL1        0.0243
     14 C          61.6850   84.5081   15.7868 C.ar    1  UNL1        0.0965
     15 N          61.6436   85.5810   16.8342 N.ar    1  UNL1       -0.2484
     16 O          63.1643   85.0647   11.1679 O.3     1  UNL1       -0.4630
     17 C          62.3055   86.0261   10.4010 C.ar    1  UNL1        0.1402
     18 C          61.5246   85.5503    9.2120 C.ar    1  UNL1        0.0324
     19 C          60.6658   86.5115    8.4450 C.ar    1  UNL1       -0.0231
     20 C          59.8850   86.0357    7.2560 C.3     1  UNL1        0.0308
     21 C          60.5878   87.9489    8.8671 C.ar    1  UNL1       -0.0292
     22 C          59.7290   88.9102    8.1002 C.3     1  UNL1        0.0304
     23 C          61.3687   88.4247   10.0561 C.ar    1  UNL1       -0.0171
     24 C          62.2276   87.4634   10.8231 C.ar    1  UNL1        0.0479
     25 C          62.8789   88.2168   11.9448 C.ar    1  UNL1        0.0868
     26 N          63.8123   88.0882   13.1119 N.ar    1  UNL1       -0.2365
     27 C          63.9328   89.4358   13.7596 C.ar    1  UNL1        0.1342
     28 S          63.0740   90.3972   12.9927 S.2     1  UNL1       -0.0685
     29 C          62.4226   89.6438   11.8711 C.ar    1  UNL1        0.0308
     30 C          61.4893   89.7724   10.7039 C.3     1  UNL1        0.0606
@<TRIPOS>BOND
     1     9    10    1
     2    10    11   ar
     3    11    12   ar
     4    12    13   ar
     5     2    13    1
     6     2     3    1
     7     3     4    1
     8     4     5    1
     9     5     6    1
    10     6     7    2
    11     6     1    1
    12     1    16    1
    13    16    17    1
    14    17    18   ar
    15    18    19   ar
    16    19    20    1
    17    19    21   ar
    18    21    22    1
    19    21    23   ar
    20    23    24   ar
    21    24    25    1
    22    25    26   ar
    23    26    27   ar
    24    27    28   ar
    25    28    29   ar
    26    29    30    1
    27     6     8    1
    28    13    14   ar
    29    14    15   ar
    30    15    10   ar
    31     8     2    1
    32    24    17   ar
    33    29    25   ar
    34    30    23    1
@<TRIPOS>MOLECULE
*****
 30 34 0 0 0
SMALL
GASTEIGER

@<TRIPOS>ATOM
      1 C          63.0028   91.0792   10.9645 C.3     1  UNL1        0.3201
      2 C          64.5448   90.4294   13.9421 C.3     1  UNL1        0.1502
      3 C          65.7890   91.2319   14.1830 C.3     1  UNL1        0.0673
      4 C          66.2554   92.2193   13.1547 C.3     1  UNL1        0.1543
      5 O          65.4776   92.4042   11.8854 O.3     1  UNL1       -0.2916
      6 P          64.2334   91.6018   11.6446 P.3     1  UNL1        0.3872
      7 O          64.2725   92.4077   10.3801 O.2     1  UNL1       -0.2539
      8 O          63.7670   90.6144   12.6729 O.3     1  UNL1       -0.2895
      9 C          62.6792   86.4797   18.0554 C.3     1  UNL1        0.0521
     10 C          63.1456   87.4671   17.0271 C.ar    1  UNL1        0.0594
     11 C          62.8634   88.9290   17.2089 C.ar    1  UNL1        0.0145
     12 C          63.3297   89.9165   16.1806 C.ar    1  UNL1        0.0008
     13 C          64.0784   89.4420   14.9704 C.ar    1  UNL1        0.0243
     14 C          64.3606   87.9801   14.7887 C.ar    1  UNL1        0.0965
     15 N          63.8943   86.9926   15.8170 N.ar    1  UNL1       -0.2484
     16 O          62.4276   89.7543   11.3691 O.3     1  UNL1       -0.4630
     17 C          61.6854   88.9212   10.3666 C.ar    1  UNL1        0.1402
     18 C          60.8941   89.5849    9.2788 C.ar    1  UNL1        0.0324
     19 C          60.1519   88.7520    8.2762 C.ar    1  UNL1       -0.0231
     20 C          59.3605   89.4157    7.1884 C.3     1  UNL1        0.0308
     21 C          60.2009   87.2552    8.3614 C.ar    1  UNL1       -0.0292
     22 C          59.4587   86.4222    7.3589 C.3     1  UNL1        0.0304
     23 C          60.9922   86.5914    9.4491 C.ar    1  UNL1       -0.0171
     24 C          61.7345   87.4244   10.4518 C.ar    1  UNL1        0.0479
     25 C          62.4253   86.4955   11.4057 C.ar    1  UNL1        0.0868
     26 N          63.3110   86.4363   12.6148 N.ar    1  UNL1       -0.2365
     27 C          63.5430   84.9926   12.9491 C.ar    1  UNL1        0.1342
     28 S          62.8008   84.1595   11.9465 S.2     1  UNL1       -0.0685
     29 C          62.1100   85.0884   10.9926 C.ar    1  UNL1        0.0308
     30 C          61.2243   85.1476    9.7834 C.3     1  UNL1        0.0606
@<TRIPOS>BOND
     1     9    10    1
     2    10    11   ar
     3    11    12   ar
     4    12    13   ar
     5     2    13    1
     6     2     3    1
     7     3     4    1
     8     4     5    1
     9     5     6    1
    10     6     7    2
    11     6     1    1
    12     1    16    1
    13    16    17    1
    14    17    18   ar
    15    18    19   ar
    16    19    20    1
    17    19    21   ar
    18    21    22    1
    19    21    23   ar
    20    23    24   ar
    21    24    25    1
    22    25    26   ar
    23    26    27   ar
    24    27    28   ar
    25    28    29   ar
    26    29    30    1
    27     6     8    1
    28    13    14   ar
    29    14    15   ar
    30    15    10   ar
    31     8     2    1
    32    24    17   ar
    33    29    25   ar
    34    30    23    1
@<TRIPOS>MOLECULE
*****
 30 34 0 0 0
SMALL
GASTEIGER

@<TRIPOS>ATOM
      1 C          62.5282   85.6374    9.1562 C.3     1  UNL1        0.3201
      2 C          61.8655   88.8935    9.9462 C.3     1  UNL1        0.1502
      3 C          60.5544   89.4026    9.4247 C.3     1  UNL1        0.0673
      4 C          59.6612   88.4972    8.6294 C.3     1  UNL1        0.1543
      5 O          60.0790   87.0828    8.3557 O.3     1  UNL1       -0.2916
      6 P          61.3901   86.5738    8.8773 P.3     1  UNL1        0.3872
      7 O          60.8921   85.3432    8.1789 O.2     1  UNL1       -0.2539
      8 O          62.2833   87.4792    9.6725 O.3     1  UNL1       -0.2895
      9 C          65.4383   92.5151   13.1272 C.3     1  UNL1        0.0521
     10 C          64.5451   91.6097   12.3320 C.ar    1  UNL1        0.0594
     11 C          64.2265   91.9365   10.9031 C.ar    1  UNL1        0.0145
     12 C          63.3333   91.0312   10.1078 C.ar    1  UNL1        0.0008
     13 C          62.7587   89.7990   10.7414 C.ar    1  UNL1        0.0243
     14 C          63.0773   89.4721   12.1703 C.ar    1  UNL1        0.0965
     15 N          63.9705   90.3775   12.9656 N.ar    1  UNL1       -0.2484
     16 O          63.1180   85.5631   10.5334 O.3     1  UNL1       -0.4630
     17 C          63.1602   84.2523   11.2615 C.ar    1  UNL1        0.1402
     18 C          62.9703   82.9693   10.5079 C.ar    1  UNL1        0.0324
     19 C          63.0125   81.6585   11.2358 C.ar    1  UNL1       -0.0231
     20 C          62.8226   80.3756   10.4822 C.3     1  UNL1        0.0308
     21 C          63.2447   81.6306   12.7175 C.ar    1  UNL1       -0.0292
     22 C          63.2869   80.3199   13.4455 C.3     1  UNL1        0.0304
     23 C          63.4346   82.9136   13.4711 C.ar    1  UNL1       -0.0171
     24 C          63.3924   84.2245   12.7431 C.ar    1  UNL1        0.0479
     25 C          63.6111   85.3187   13.7455 C.ar    1  UNL1        0.0868
     26 N          63.7202   86.8051   13.9151 N.ar    1  UNL1       -0.2365
     27 C          63.9650   87.0892   15.3674 C.ar    1  UNL1        0.1342
     28 S          64.0072   85.7784   16.0955 S.2     1  UNL1       -0.0685
     29 C          63.7885   84.6841   15.0931 C.ar    1  UNL1        0.0308
     30 C          63.6795   83.1978   14.9236 C.3     1  UNL1        0.0606
@<TRIPOS>BOND
     1     9    10    1
     2    10    11   ar
     3    11    12   ar
     4    12    13   ar
     5     2    13    1
     6     2     3    1
     7     3     4    1
     8     4     5    1
     9     5     6    1
    10     6     7    2
    11     6     1    1
    12     1    16    1
    13    16    17    1
    14    17    18   ar
    15    18    19   ar
    16    19    20    1
    17    19    21   ar
    18    21    22    1
    19    21    23   ar
    20    23    24   ar
    21    24    25    1
    22    25    26   ar
    23    26    27   ar
    24    27    28   ar
    25    28    29   ar
    26    29    30    1
    27     6     8    1
    28    13    14   ar
    29    14    15   ar
    30    15    10   ar
    31     8     2    1
    32    24    17   ar
    33    29    25   ar
    34    30    23    1
@<TRIPOS>MOLECULE
*****
 30 34 0 0 0
SMALL
GASTEIGER

@<TRIPOS>ATOM
      1 C          64.0959   87.2094   14.6334 C.3     1  UNL1        0.3201
      2 C          64.5539   90.5871   14.4150 C.3     1  UNL1        0.1502
      3 C          64.1003   91.3527   15.6226 C.3     1  UNL1        0.0673
      4 C          63.5043   90.6255   16.7914 C.3     1  UNL1        0.1543
      5 O          63.3619   89.1327   16.7525 O.3     1  UNL1       -0.2916
      6 P          63.8155   88.3672   15.5450 P.3     1  UNL1        0.3872
      7 O          63.3168   87.2379   16.3972 O.2     1  UNL1       -0.2539
      8 O          64.4115   89.0944   14.3763 O.3     1  UNL1       -0.2895
      9 C          66.9379   93.4959    9.7401 C.3     1  UNL1        0.0521
     10 C          66.3419   92.7687   10.9088 C.ar    1  UNL1        0.0594
     11 C          67.1434   92.5798   12.1626 C.ar    1  UNL1        0.0145
     12 C          66.5475   91.8526   13.3313 C.ar    1  UNL1        0.0008
     13 C          65.1499   91.3143   13.2463 C.ar    1  UNL1        0.0243
     14 C          64.3484   91.5032   11.9926 C.ar    1  UNL1        0.0965
     15 N          64.9444   92.2304   10.8238 N.ar    1  UNL1       -0.2484
     16 O          63.2905   85.9496   14.7516 O.3     1  UNL1       -0.4630
     17 C          63.3362   84.9248   13.6572 C.ar    1  UNL1        0.1402
     18 C          63.7535   83.5172   13.9647 C.ar    1  UNL1        0.0324
     19 C          63.7992   82.4924   12.8704 C.ar    1  UNL1       -0.0231
     20 C          64.2166   81.0848   13.1779 C.3     1  UNL1        0.0308
     21 C          63.4275   82.8751   11.4684 C.ar    1  UNL1       -0.0292
     22 C          63.4731   81.8503   10.3741 C.3     1  UNL1        0.0304
     23 C          63.0101   84.2826   11.1609 C.ar    1  UNL1       -0.0171
     24 C          62.9645   85.3075   12.2553 C.ar    1  UNL1        0.0479
     25 C          62.5171   86.6073   11.6548 C.ar    1  UNL1        0.0868
     26 N          62.2124   88.0439   11.9601 N.ar    1  UNL1       -0.2365
     27 C          61.7932   88.7102   10.6833 C.ar    1  UNL1        0.1342
     28 S          61.8389   87.6854    9.5889 S.2     1  UNL1       -0.0685
     29 C          62.2863   86.3857   10.1894 C.ar    1  UNL1        0.0308
     30 C          62.5910   84.9491    9.8841 C.3     1  UNL1        0.0606
@<TRIPOS>BOND
     1     9    10    1
     2    10    11   ar
     3    11    12   ar
     4    12    13   ar
     5     2    13    1
     6     2     3    1
     7     3     4    1
     8     4     5    1
     9     5     6    1
    10     6     7    2
    11     6     1    1
    12     1    16    1
    13    16    17    1
    14    17    18   ar
    15    18    19   ar
    16    19    20    1
    17    19    21   ar
    18    21    22    1
    19    21    23   ar
    20    23    24   ar
    21    24    25    1
    22    25    26   ar
    23    26    27   ar
    24    27    28   ar
    25    28    29   ar
    26    29    30    1
    27     6     8    1
    28    13    14   ar
    29    14    15   ar
    30    15    10   ar
    31     8     2    1
    32    24    17   ar
    33    29    25   ar
    34    30    23    1
