@<TRIPOS>MOLECULE
*****
 43 46 0 0 0
SMALL
GASTEIGER

@<TRIPOS>ATOM
      1 C          63.6076   89.8188   12.6703 C.3     1  UNL1        0.1085
      2 O          63.4655   89.3040   11.2686 O.3     1  UNL1       -0.3826
      3 H          63.3318   90.0494   10.6624 H       1  UNL1        0.2107
      4 C          63.7766   88.4142   13.1689 C.3     1  UNL1        0.0484
      5 C          64.5062   88.1573   14.4541 C.3     1  UNL1        0.0061
      6 C          64.6751   86.7527   14.9527 C.3     1  UNL1        0.0217
      7 C          64.1145   85.6051   14.1662 C.3     1  UNL1        0.0934
      8 N          63.3849   85.8620   12.8810 N.am    1  UNL1       -0.2795
      9 C          62.8243   84.7143   12.0944 C.2     1  UNL1        0.2252
     10 O          62.0947   84.9713   10.8092 O.2     1  UNL1       -0.2749
     11 C          63.2160   87.2665   12.3824 C.3     1  UNL1        0.0960
     12 C          62.9933   83.3098   12.5931 C.3     1  UNL1        0.0781
     13 C          64.2759   82.5326   12.6215 C.3     1  UNL1        0.0105
     14 C          63.9846   81.1783   13.1968 C.3     1  UNL1        0.0162
     15 C          62.5219   81.1185   13.5240 C.3     1  UNL1        0.0545
     16 C          61.9093   82.4358   13.1508 C.3     1  UNL1        0.0248
     17 N          61.7989   79.9470   14.1197 N.3     1  UNL1       -0.2974
     18 C          60.3014   79.9547   14.2057 C.3     1  UNL1        0.0858
     19 H          62.1480   79.8387   15.0719 H       1  UNL1        0.1232
     20 C          64.8611   91.2811   14.4140 C.ar    1  UNL1        0.0088
     21 C          65.0033   91.7958   15.8157 C.ar    1  UNL1        0.0574
     22 CL         66.1147   92.7434   16.1576 Cl      1  UNL1       -0.0823
     23 C          64.0341   91.3629   16.8756 C.ar    1  UNL1        0.0114
     24 C          62.9227   90.4153   16.5337 C.ar    1  UNL1        0.0006
     25 C          62.7806   89.9006   15.1319 C.ar    1  UNL1       -0.0020
     26 C          63.7498   90.3335   14.0721 C.ar    1  UNL1        0.0026
     27 C          66.3789   93.1440   11.2555 C.ar    1  UNL1       -0.0222
     28 C          67.7686   92.5798   11.2344 C.ar    1  UNL1       -0.0043
     29 C          68.1891   91.5827   12.2731 C.ar    1  UNL1       -0.0003
     30 C          67.2200   91.1498   13.3330 C.ar    1  UNL1       -0.0000
     31 C          65.8303   91.7140   13.3541 C.ar    1  UNL1        0.0003
     32 C          65.4098   92.7111   12.3153 C.ar    1  UNL1       -0.0042
     33 C          66.9739   94.7159    9.2744 C.3     1  UNL1        0.0050
     34 C          65.9584   94.1411   10.2168 C.3     1  UNL1        0.0264
     35 C          63.4386   91.2233   12.1717 C.3     1  UNL1        0.0329
     36 C          62.5997   91.4924   10.9577 C.3     1  UNL1        0.0241
     37 C          61.2133   90.9275   10.8639 C.3     1  UNL1        0.0928
     38 N          60.8850   89.9175    9.8047 N.am    1  UNL1       -0.2707
     39 C          60.2591   88.6084   10.1848 C.2     1  UNL1        0.4017
     40 O          59.9614   88.3093   11.6243 O.2     1  UNL1       -0.2264
     41 H          61.0803   90.1138    8.8599 H       1  UNL1        0.1527
     42 O          59.9308   87.5984    9.1255 O.3     1  UNL1       -0.4306
     43 C          59.3884   88.0493    7.8016 C.3     1  UNL1        0.2573
@<TRIPOS>BOND
     1    33    34    1
     2    34    27    1
     3    27    28   ar
     4    28    29   ar
     5    29    30   ar
     6    30    31   ar
     7    31    20    1
     8    20    21   ar
     9    21    22    1
    10    21    23   ar
    11    23    24   ar
    12    24    25   ar
    13    25    26   ar
    14    26     1    1
    15     1     2    1
    16     1    35    1
    17    35    36    1
    18    36    37    1
    19    37    38    1
    20    38    39   am
    21    39    40    2
    22    39    42    1
    23    42    43    1
    24     4     1    1
    25     4     5    1
    26     5     6    1
    27     6     7    1
    28     7     8    1
    29     8     9   am
    30     9    10    2
    31    12     9    1
    32    12    13    1
    33    13    14    1
    34    14    15    1
    35    15    17    1
    36    17    18    1
    37    15    16    1
    38     8    11    1
    39    31    32   ar
    40    32    27   ar
    41    26    20   ar
    42    11     4    1
    43    16    12    1
    44     2     3    1
    45    38    41    1
    46    17    19    1
@<TRIPOS>MOLECULE
*****
 43 46 0 0 0
SMALL
GASTEIGER

@<TRIPOS>ATOM
      1 C          63.0583   88.5382   12.4365 C.3     1  UNL1        0.1085
      2 O          64.4692   88.3679   12.9165 O.3     1  UNL1       -0.3826
      3 H          64.5360   87.5554   13.4422 H       1  UNL1        0.2107
      4 C          63.4475   89.8106   11.7441 C.3     1  UNL1        0.0484
      5 C          62.8330   90.1632   10.4219 C.3     1  UNL1        0.0061
      6 C          63.2222   91.4357    9.7295 C.3     1  UNL1        0.0217
      7 C          64.2258   92.3555   10.3592 C.3     1  UNL1        0.0934
      8 N          64.8403   92.0029   11.6814 N.am    1  UNL1       -0.2795
      9 C          65.8439   92.9228   12.3112 C.2     1  UNL1        0.2252
     10 O          66.4584   92.5702   13.6333 O.2     1  UNL1       -0.2749
     11 C          64.4511   90.7305   12.3738 C.3     1  UNL1        0.0960
     12 C          66.2331   94.1952   11.6188 C.3     1  UNL1        0.0781
     13 C          66.0699   95.5823   12.1660 C.3     1  UNL1        0.0105
     14 C          66.5897   96.5483   11.1429 C.3     1  UNL1        0.0162
     15 C          67.0742   95.7583    9.9635 C.3     1  UNL1        0.0545
     16 C          66.8538   94.3041   10.2575 C.3     1  UNL1        0.0248
     17 N          67.6738   96.3234    8.7100 N.3     1  UNL1       -0.2974
     18 C          66.7834   96.8554    7.6264 C.3     1  UNL1        0.0858
     19 H          68.2355   95.5817    8.2919 H       1  UNL1        0.1232
     20 C          61.0914   87.7802   10.9176 C.ar    1  UNL1        0.0088
     21 C          59.6806   87.9505   10.4375 C.ar    1  UNL1        0.0574
     22 CL         59.1247   87.0222    9.3987 Cl      1  UNL1       -0.0823
     23 C          58.8257   89.0491   10.9962 C.ar    1  UNL1        0.0114
     24 C          59.3816   89.9774   12.0351 C.ar    1  UNL1        0.0006
     25 C          60.7925   89.8071   12.5151 C.ar    1  UNL1       -0.0020
     26 C          61.6474   88.7085   11.9564 C.ar    1  UNL1        0.0026
     27 C          62.9803   84.3074   10.5688 C.ar    1  UNL1       -0.0222
     28 C          63.6562   84.4843    9.2415 C.ar    1  UNL1       -0.0043
     29 C          63.4772   85.7599    8.4729 C.ar    1  UNL1       -0.0003
     30 C          62.6223   86.8585    9.0316 C.ar    1  UNL1       -0.0000
     31 C          61.9464   86.6816   10.3589 C.ar    1  UNL1        0.0003
     32 C          62.1254   85.4060   11.1275 C.ar    1  UNL1       -0.0042
     33 C          64.5332   82.5872   11.7433 C.3     1  UNL1        0.0050
     34 C          63.1593   83.0318   11.3375 C.3     1  UNL1        0.0264
     35 C          62.6692   87.2658   13.1289 C.3     1  UNL1        0.0329
     36 C          63.7169   86.4230   13.7938 C.3     1  UNL1        0.0241
     37 C          63.3304   85.4670   14.8831 C.3     1  UNL1        0.0928
     38 N          62.2841   84.4228   14.6282 N.am    1  UNL1       -0.2707
     39 C          62.6091   82.9718   14.8253 C.2     1  UNL1        0.4017
     40 O          63.9804   82.5649   15.2773 O.2     1  UNL1       -0.2264
     41 H          61.3842   84.6898   14.3315 H       1  UNL1        0.1527
     42 O          61.5629   81.9275   14.5704 O.3     1  UNL1       -0.4306
     43 C          61.9022   80.7060   13.7686 C.3     1  UNL1        0.2573
@<TRIPOS>BOND
     1    33    34    1
     2    34    27    1
     3    27    28   ar
     4    28    29   ar
     5    29    30   ar
     6    30    31   ar
     7    31    20    1
     8    20    21   ar
     9    21    22    1
    10    21    23   ar
    11    23    24   ar
    12    24    25   ar
    13    25    26   ar
    14    26     1    1
    15     1     2    1
    16     1    35    1
    17    35    36    1
    18    36    37    1
    19    37    38    1
    20    38    39   am
    21    39    40    2
    22    39    42    1
    23    42    43    1
    24     4     1    1
    25     4     5    1
    26     5     6    1
    27     6     7    1
    28     7     8    1
    29     8     9   am
    30     9    10    2
    31    12     9    1
    32    12    13    1
    33    13    14    1
    34    14    15    1
    35    15    17    1
    36    17    18    1
    37    15    16    1
    38     8    11    1
    39    31    32   ar
    40    32    27   ar
    41    26    20   ar
    42    11     4    1
    43    16    12    1
    44     2     3    1
    45    38    41    1
    46    17    19    1
@<TRIPOS>MOLECULE
*****
 43 46 0 0 0
SMALL
GASTEIGER

@<TRIPOS>ATOM
      1 C          62.4682   87.4206   12.0487 C.3     1  UNL1        0.1085
      2 O          63.6211   87.2834   12.9984 O.3     1  UNL1       -0.3826
      3 H          63.5767   86.4200   13.4382 H       1  UNL1        0.2107
      4 C          62.9485   88.7882   11.6632 C.3     1  UNL1        0.0484
      5 C          62.5205   89.3935   10.3591 C.3     1  UNL1        0.0061
      6 C          63.0009   90.7612    9.9736 C.3     1  UNL1        0.0217
      7 C          63.9092   91.5237   10.8920 C.3     1  UNL1        0.0934
      8 N          64.3371   90.9184   12.1961 N.am    1  UNL1       -0.2795
      9 C          65.2455   91.6810   13.1146 C.2     1  UNL1        0.2252
     10 O          65.6734   91.0758   14.4187 O.2     1  UNL1       -0.2749
     11 C          63.8568   89.5508   12.5817 C.3     1  UNL1        0.0960
     12 C          65.7258   93.0486   12.7290 C.3     1  UNL1        0.0781
     13 C          66.2911   94.0796   13.6604 C.3     1  UNL1        0.0105
     14 C          66.6398   95.2937   12.8513 C.3     1  UNL1        0.0162
     15 C          66.2900   95.0130   11.4200 C.3     1  UNL1        0.0545
     16 C          65.7251   93.6255   11.3444 C.3     1  UNL1        0.0248
     17 N          66.4730   95.9545   10.2667 N.3     1  UNL1       -0.2974
     18 C          65.3158   96.7733    9.7761 C.3     1  UNL1        0.0858
     19 H          66.7929   95.3940    9.4769 H       1  UNL1        0.1232
     20 C          61.1796   86.6121    9.9425 C.ar    1  UNL1        0.0088
     21 C          60.0267   86.7493    8.9928 C.ar    1  UNL1        0.0574
     22 CL         59.8911   85.8036    7.8364 Cl      1  UNL1       -0.0823
     23 C          59.0094   87.8321    9.1994 C.ar    1  UNL1        0.0114
     24 C          59.1451   88.7778   10.3559 C.ar    1  UNL1        0.0006
     25 C          60.2980   88.6406   11.3056 C.ar    1  UNL1       -0.0020
     26 C          61.3152   87.5578   11.0990 C.ar    1  UNL1        0.0026
     27 C          63.2475   83.2631   10.4505 C.ar    1  UNL1       -0.0222
     28 C          64.2313   83.3636    9.3227 C.ar    1  UNL1       -0.0043
     29 C          64.1978   84.5469    8.4014 C.ar    1  UNL1       -0.0003
     30 C          63.1806   85.6297    8.6080 C.ar    1  UNL1       -0.0000
     31 C          62.1969   85.5292    9.7359 C.ar    1  UNL1        0.0003
     32 C          62.2303   84.3459   10.6571 C.ar    1  UNL1       -0.0042
     33 C          64.3919   81.9371   12.3693 C.3     1  UNL1        0.0050
     34 C          63.2809   82.0798   11.3717 C.3     1  UNL1        0.0264
     35 C          61.9879   86.0529   12.4343 C.3     1  UNL1        0.0329
     36 C          62.8455   85.1711   13.2928 C.3     1  UNL1        0.0241
     37 C          62.2096   84.1591   14.1991 C.3     1  UNL1        0.0928
     38 N          61.7299   84.5679   15.5602 N.am    1  UNL1       -0.2707
     39 C          62.5732   85.4682   16.4136 C.2     1  UNL1        0.4017
     40 O          63.8963   85.9598   15.9058 O.2     1  UNL1       -0.2264
     41 H          60.8615   84.2452   15.8935 H       1  UNL1        0.1527
     42 O          62.0935   85.8769   17.7747 O.3     1  UNL1       -0.4306
     43 C          62.7561   87.0150   18.4930 C.3     1  UNL1        0.2573
@<TRIPOS>BOND
     1    33    34    1
     2    34    27    1
     3    27    28   ar
     4    28    29   ar
     5    29    30   ar
     6    30    31   ar
     7    31    20    1
     8    20    21   ar
     9    21    22    1
    10    21    23   ar
    11    23    24   ar
    12    24    25   ar
    13    25    26   ar
    14    26     1    1
    15     1     2    1
    16     1    35    1
    17    35    36    1
    18    36    37    1
    19    37    38    1
    20    38    39   am
    21    39    40    2
    22    39    42    1
    23    42    43    1
    24     4     1    1
    25     4     5    1
    26     5     6    1
    27     6     7    1
    28     7     8    1
    29     8     9   am
    30     9    10    2
    31    12     9    1
    32    12    13    1
    33    13    14    1
    34    14    15    1
    35    15    17    1
    36    17    18    1
    37    15    16    1
    38     8    11    1
    39    31    32   ar
    40    32    27   ar
    41    26    20   ar
    42    11     4    1
    43    16    12    1
    44     2     3    1
    45    38    41    1
    46    17    19    1
@<TRIPOS>MOLECULE
*****
 43 46 0 0 0
SMALL
GASTEIGER

@<TRIPOS>ATOM
      1 C          62.6193   89.3260   10.5382 C.3     1  UNL1        0.1085
      2 O          63.6610   89.3086    9.4590 O.3     1  UNL1       -0.3826
      3 H          63.8632   90.2184    9.1902 H       1  UNL1        0.2107
      4 C          62.6559   87.8276   10.5976 C.3     1  UNL1        0.0484
      5 C          62.5037   87.0233    9.3407 C.3     1  UNL1        0.0061
      6 C          62.5403   85.5248    9.4002 C.3     1  UNL1        0.0217
      7 C          62.7291   84.8309   10.7165 C.3     1  UNL1        0.0934
      8 N          62.8813   85.6353   11.9734 N.am    1  UNL1       -0.2795
      9 C          63.0700   84.9412   13.2898 C.2     1  UNL1        0.2252
     10 O          63.2222   85.7456   14.5467 O.2     1  UNL1       -0.2749
     11 C          62.8447   87.1336   11.9140 C.3     1  UNL1        0.0960
     12 C          63.1066   83.4429   13.3492 C.3     1  UNL1        0.0781
     13 C          64.3107   82.5803   13.1125 C.3     1  UNL1        0.0105
     14 C          63.8938   81.1483   13.2728 C.3     1  UNL1        0.0162
     15 C          62.4320   81.1259   13.6085 C.3     1  UNL1        0.0545
     16 C          61.9455   82.5440   13.6557 C.3     1  UNL1        0.0248
     17 N          61.6024   79.9005   13.8539 N.3     1  UNL1       -0.2974
     18 C          60.1464   80.0352   14.1884 C.3     1  UNL1        0.0858
     19 H          62.0377   79.4007   14.6292 H       1  UNL1        0.1232
     20 C          60.1600   88.9719   11.2974 C.ar    1  UNL1        0.0088
     21 C          59.1183   88.9892   12.3765 C.ar    1  UNL1        0.0574
     22 CL         57.7006   88.6177   12.0565 Cl      1  UNL1       -0.0823
     23 C          59.4942   89.3779   13.7757 C.ar    1  UNL1        0.0114
     24 C          60.9118   89.7493   14.0957 C.ar    1  UNL1        0.0006
     25 C          61.9535   89.7320   13.0165 C.ar    1  UNL1       -0.0020
     26 C          61.5776   89.3433   11.6174 C.ar    1  UNL1        0.0026
     27 C          59.5163   89.1961    7.3877 C.ar    1  UNL1       -0.0222
     28 C          59.0323   87.8058    7.0999 C.ar    1  UNL1       -0.0043
     29 C          58.9243   86.8042    8.2113 C.ar    1  UNL1       -0.0003
     30 C          59.3001   87.1929    9.6104 C.ar    1  UNL1       -0.0000
     31 C          59.7841   88.5831    9.8982 C.ar    1  UNL1        0.0003
     32 C          59.8921   89.5847    8.7868 C.ar    1  UNL1       -0.0042
     33 C          58.3846   90.7097    5.6050 C.3     1  UNL1        0.0050
     34 C          59.6244   90.1977    6.2763 C.3     1  UNL1        0.0264
     35 C          62.5827   90.8243   10.4787 C.3     1  UNL1        0.0329
     36 C          63.7636   91.5830    9.9496 C.3     1  UNL1        0.0241
     37 C          64.6615   92.3265   10.8934 C.3     1  UNL1        0.0928
     38 N          65.3985   93.5457   10.4239 N.am    1  UNL1       -0.2707
     39 C          66.8926   93.6100   10.5399 C.2     1  UNL1        0.4017
     40 O          67.6498   92.4551   11.1254 O.2     1  UNL1       -0.2264
     41 H          64.9015   94.3037   10.0396 H       1  UNL1        0.1527
     42 O          67.6295   94.8292   10.0703 O.3     1  UNL1       -0.4306
     43 C          67.5284   95.2611    8.6373 C.3     1  UNL1        0.2573
@<TRIPOS>BOND
     1    33    34    1
     2    34    27    1
     3    27    28   ar
     4    28    29   ar
     5    29    30   ar
     6    30    31   ar
     7    31    20    1
     8    20    21   ar
     9    21    22    1
    10    21    23   ar
    11    23    24   ar
    12    24    25   ar
    13    25    26   ar
    14    26     1    1
    15     1     2    1
    16     1    35    1
    17    35    36    1
    18    36    37    1
    19    37    38    1
    20    38    39   am
    21    39    40    2
    22    39    42    1
    23    42    43    1
    24     4     1    1
    25     4     5    1
    26     5     6    1
    27     6     7    1
    28     7     8    1
    29     8     9   am
    30     9    10    2
    31    12     9    1
    32    12    13    1
    33    13    14    1
    34    14    15    1
    35    15    17    1
    36    17    18    1
    37    15    16    1
    38     8    11    1
    39    31    32   ar
    40    32    27   ar
    41    26    20   ar
    42    11     4    1
    43    16    12    1
    44     2     3    1
    45    38    41    1
    46    17    19    1
@<TRIPOS>MOLECULE
*****
 43 46 0 0 0
SMALL
GASTEIGER

@<TRIPOS>ATOM
      1 C          62.6679   89.3040   10.5014 C.3     1  UNL1        0.1085
      2 O          63.7075   89.2660    9.4208 O.3     1  UNL1       -0.3826
      3 H          63.9202   90.1712    9.1448 H       1  UNL1        0.2107
      4 C          62.6865   87.8058   10.5720 C.3     1  UNL1        0.0484
      5 C          62.5221   86.9939    9.3215 C.3     1  UNL1        0.0061
      6 C          62.5408   85.4956    9.3922 C.3     1  UNL1        0.0217
      7 C          62.7238   84.8094   10.7134 C.3     1  UNL1        0.0934
      8 N          62.8882   85.6213   11.9639 N.am    1  UNL1       -0.2795
      9 C          63.0713   84.9349   13.2851 C.2     1  UNL1        0.2252
     10 O          63.2357   85.7468   14.5356 O.2     1  UNL1       -0.2749
     11 C          62.8696   87.1195   11.8932 C.3     1  UNL1        0.0960
     12 C          63.0899   83.4367   13.3557 C.3     1  UNL1        0.0781
     13 C          64.2723   82.5558   13.0804 C.3     1  UNL1        0.0105
     14 C          63.8426   81.1310   13.2687 C.3     1  UNL1        0.0162
     15 C          62.3946   81.1314   13.6602 C.3     1  UNL1        0.0545
     16 C          61.9294   82.5564   13.7140 C.3     1  UNL1        0.0248
     17 N          61.5586   79.9196   13.9475 N.3     1  UNL1       -0.2974
     18 C          60.0848   80.0646   14.1861 C.3     1  UNL1        0.0858
     19 H          61.9503   79.4827   14.7818 H       1  UNL1        0.1232
     20 C          60.2047   88.9907   11.2658 C.ar    1  UNL1        0.0088
     21 C          59.1650   89.0286   12.3464 C.ar    1  UNL1        0.0574
     22 CL         57.7414   88.6773   12.0302 Cl      1  UNL1       -0.0823
     23 C          59.5489   89.4179   13.7432 C.ar    1  UNL1        0.0114
     24 C          60.9725   89.7692   14.0595 C.ar    1  UNL1        0.0006
     25 C          62.0122   89.7312   12.9788 C.ar    1  UNL1       -0.0020
     26 C          61.6282   89.3420   11.5820 C.ar    1  UNL1        0.0026
     27 C          59.5327   89.2152    7.3609 C.ar    1  UNL1       -0.0222
     28 C          59.0530   87.8230    7.0753 C.ar    1  UNL1       -0.0043
     29 C          58.9571   86.8200    8.1866 C.ar    1  UNL1       -0.0003
     30 C          59.3410   87.2092    9.5834 C.ar    1  UNL1       -0.0000
     31 C          59.8207   88.6014    9.8689 C.ar    1  UNL1        0.0003
     32 C          59.9166   89.6044    8.7577 C.ar    1  UNL1       -0.0042
     33 C          58.3808   90.7429    5.6033 C.3     1  UNL1        0.0050
     34 C          59.6285   90.2182    6.2497 C.3     1  UNL1        0.0264
     35 C          62.6493   90.8022   10.4307 C.3     1  UNL1        0.0329
     36 C          63.9107   91.5798   10.6635 C.3     1  UNL1        0.0241
     37 C          64.3816   91.8436   12.0630 C.3     1  UNL1        0.0928
     38 N          65.7730   92.3500   12.3032 N.am    1  UNL1       -0.2707
     39 C          66.2391   92.6274   13.7016 C.2     1  UNL1        0.4017
     40 O          65.3139   92.3985   14.8600 O.2     1  UNL1       -0.2264
     41 H          66.3802   92.5003   11.5430 H       1  UNL1        0.1527
     42 O          67.6305   93.1338   13.9419 O.3     1  UNL1       -0.4306
     43 C          68.0786   93.4634   15.3349 C.3     1  UNL1        0.2573
@<TRIPOS>BOND
     1    33    34    1
     2    34    27    1
     3    27    28   ar
     4    28    29   ar
     5    29    30   ar
     6    30    31   ar
     7    31    20    1
     8    20    21   ar
     9    21    22    1
    10    21    23   ar
    11    23    24   ar
    12    24    25   ar
    13    25    26   ar
    14    26     1    1
    15     1     2    1
    16     1    35    1
    17    35    36    1
    18    36    37    1
    19    37    38    1
    20    38    39   am
    21    39    40    2
    22    39    42    1
    23    42    43    1
    24     4     1    1
    25     4     5    1
    26     5     6    1
    27     6     7    1
    28     7     8    1
    29     8     9   am
    30     9    10    2
    31    12     9    1
    32    12    13    1
    33    13    14    1
    34    14    15    1
    35    15    17    1
    36    17    18    1
    37    15    16    1
    38     8    11    1
    39    31    32   ar
    40    32    27   ar
    41    26    20   ar
    42    11     4    1
    43    16    12    1
    44     2     3    1
    45    38    41    1
    46    17    19    1
@<TRIPOS>MOLECULE
*****
 43 46 0 0 0
SMALL
GASTEIGER

@<TRIPOS>ATOM
      1 C          62.1685   87.7320   11.5587 C.3     1  UNL1        0.1085
      2 O          63.2039   86.9605   12.3221 O.3     1  UNL1       -0.3826
      3 H          62.9261   86.0343   12.3980 H       1  UNL1        0.2107
      4 C          62.9902   88.9785   11.7040 C.3     1  UNL1        0.0484
      5 C          63.1191   89.9303   10.5519 C.3     1  UNL1        0.0061
      6 C          63.9408   91.1768   10.6972 C.3     1  UNL1        0.0217
      7 C          64.6336   91.4714   11.9946 C.3     1  UNL1        0.0934
      8 N          64.5047   90.5196   13.1467 N.am    1  UNL1       -0.2795
      9 C          65.1976   90.8142   14.4441 C.2     1  UNL1        0.2252
     10 O          65.0687   89.8623   15.5962 O.2     1  UNL1       -0.2749
     11 C          63.6831   89.2731   13.0014 C.3     1  UNL1        0.0960
     12 C          66.0193   92.0607   14.5893 C.3     1  UNL1        0.0781
     13 C          66.0108   93.2358   13.6573 C.3     1  UNL1        0.0105
     14 C          66.9800   94.2523   14.1841 C.3     1  UNL1        0.0162
     15 C          67.5875   93.7053   15.4418 C.3     1  UNL1        0.0545
     16 C          66.9937   92.3508   15.6922 C.3     1  UNL1        0.0248
     17 N          68.6093   94.3922   16.2985 N.3     1  UNL1       -0.2974
     18 C          70.0674   94.0936   16.1120 C.3     1  UNL1        0.0858
     19 H          68.3834   94.1637   17.2666 H       1  UNL1        0.1232
     20 C          60.8294   88.1447    9.3709 C.ar    1  UNL1        0.0088
     21 C          59.7941   88.9162    8.6075 C.ar    1  UNL1        0.0574
     22 CL         59.4904   88.5574    7.1831 Cl      1  UNL1       -0.0823
     23 C          59.0624   90.0466    9.2685 C.ar    1  UNL1        0.0114
     24 C          59.3661   90.4055   10.6930 C.ar    1  UNL1        0.0006
     25 C          60.4015   89.6339   11.4564 C.ar    1  UNL1       -0.0020
     26 C          61.1331   88.5036   10.7953 C.ar    1  UNL1        0.0026
     27 C          61.5806   85.0024    7.0662 C.ar    1  UNL1       -0.0222
     28 C          63.0244   84.7537    7.3878 C.ar    1  UNL1       -0.0043
     29 C          63.7366   85.6353    8.3704 C.ar    1  UNL1       -0.0003
     30 C          63.0050   86.7656    9.0315 C.ar    1  UNL1       -0.0000
     31 C          61.5611   87.0144    8.7098 C.ar    1  UNL1        0.0003
     32 C          60.8490   86.1328    7.7272 C.ar    1  UNL1       -0.0042
     33 C          61.5105   83.7917    4.7686 C.3     1  UNL1        0.0050
     34 C          60.8684   84.1208    6.0835 C.3     1  UNL1        0.0264
     35 C          61.3469   86.4855   11.4134 C.3     1  UNL1        0.0329
     36 C          61.7886   85.2145   12.0763 C.3     1  UNL1        0.0241
     37 C          62.4822   84.1527   11.2753 C.3     1  UNL1        0.0928
     38 N          62.6016   82.7603   11.8200 N.am    1  UNL1       -0.2707
     39 C          63.5770   82.4668   12.9212 C.2     1  UNL1        0.4017
     40 O          64.4329   83.5659   13.4776 O.2     1  UNL1       -0.2264
     41 H          62.0399   82.0389   11.4548 H       1  UNL1        0.1527
     42 O          63.6965   81.0744   13.4659 O.3     1  UNL1       -0.4306
     43 C          62.5183   80.1471   13.4192 C.3     1  UNL1        0.2573
@<TRIPOS>BOND
     1    33    34    1
     2    34    27    1
     3    27    28   ar
     4    28    29   ar
     5    29    30   ar
     6    30    31   ar
     7    31    20    1
     8    20    21   ar
     9    21    22    1
    10    21    23   ar
    11    23    24   ar
    12    24    25   ar
    13    25    26   ar
    14    26     1    1
    15     1     2    1
    16     1    35    1
    17    35    36    1
    18    36    37    1
    19    37    38    1
    20    38    39   am
    21    39    40    2
    22    39    42    1
    23    42    43    1
    24     4     1    1
    25     4     5    1
    26     5     6    1
    27     6     7    1
    28     7     8    1
    29     8     9   am
    30     9    10    2
    31    12     9    1
    32    12    13    1
    33    13    14    1
    34    14    15    1
    35    15    17    1
    36    17    18    1
    37    15    16    1
    38     8    11    1
    39    31    32   ar
    40    32    27   ar
    41    26    20   ar
    42    11     4    1
    43    16    12    1
    44     2     3    1
    45    38    41    1
    46    17    19    1
@<TRIPOS>MOLECULE
*****
 43 46 0 0 0
SMALL
GASTEIGER

@<TRIPOS>ATOM
      1 C          62.2837   89.4276   10.6881 C.3     1  UNL1        0.1085
      2 O          63.4643   89.4789    9.7642 O.3     1  UNL1       -0.3826
      3 H          63.7934   90.3898    9.7105 H       1  UNL1        0.2107
      4 C          62.1612   87.9518   10.4495 C.3     1  UNL1        0.0484
      5 C          61.5099   87.4461    9.1965 C.3     1  UNL1        0.0061
      6 C          61.3874   85.9702    8.9579 C.3     1  UNL1        0.0217
      7 C          61.9162   85.0001    9.9723 C.3     1  UNL1        0.0934
      8 N          62.5676   85.5057   11.2254 N.am    1  UNL1       -0.2795
      9 C          63.0965   84.5355   12.2398 C.2     1  UNL1        0.2252
     10 O          63.7479   85.0412   13.4928 O.2     1  UNL1       -0.2749
     11 C          62.6901   86.9815   11.4639 C.3     1  UNL1        0.0960
     12 C          62.9740   83.0597   12.0012 C.3     1  UNL1        0.0781
     13 C          62.5428   82.0364   13.0096 C.3     1  UNL1        0.0105
     14 C          62.5635   80.6923   12.3439 C.3     1  UNL1        0.0162
     15 C          63.0074   80.8850   10.9241 C.3     1  UNL1        0.0545
     16 C          63.2611   82.3481   10.7123 C.3     1  UNL1        0.0248
     17 N          63.1693   79.8043    9.8966 N.3     1  UNL1       -0.2974
     18 C          62.7633   78.3966   10.2184 C.3     1  UNL1        0.0858
     19 H          64.1591   79.7766    9.6517 H       1  UNL1        0.1232
     20 C          61.3101   89.4253   13.0969 C.ar    1  UNL1        0.0088
     21 C          60.1296   89.3739   14.0208 C.ar    1  UNL1        0.0574
     22 CL         60.3366   89.4231   15.5056 Cl      1  UNL1       -0.0823
     23 C          58.7420   89.2733   13.4599 C.ar    1  UNL1        0.0114
     24 C          58.5350   89.2241   11.9751 C.ar    1  UNL1        0.0006
     25 C          59.7156   89.2755   11.0511 C.ar    1  UNL1       -0.0020
     26 C          61.1031   89.3761   11.6120 C.ar    1  UNL1        0.0026
     27 C          64.7404   90.9682   14.3629 C.ar    1  UNL1       -0.0222
     28 C          65.4727   89.7273   14.7795 C.ar    1  UNL1       -0.0043
     29 C          64.8176   88.3856   14.6353 C.ar    1  UNL1       -0.0003
     30 C          63.4301   88.2850   14.0744 C.ar    1  UNL1       -0.0000
     31 C          62.6977   89.5259   13.6578 C.ar    1  UNL1        0.0003
     32 C          63.3529   90.8676   13.8020 C.ar    1  UNL1       -0.0042
     33 C          66.4635   92.5158   15.5400 C.3     1  UNL1        0.0050
     34 C          65.3956   92.3098   14.5071 C.3     1  UNL1        0.0264
     35 C          62.4062   90.9033   10.9267 C.3     1  UNL1        0.0329
     36 C          63.4330   91.7013   10.1790 C.3     1  UNL1        0.0241
     37 C          64.6116   92.2766   10.9070 C.3     1  UNL1        0.0928
     38 N          65.3768   93.4202   10.3097 N.am    1  UNL1       -0.2707
     39 C          66.8592   93.5196   10.5157 C.2     1  UNL1        0.4017
     40 O          67.5766   92.4753   11.3189 O.2     1  UNL1       -0.2264
     41 H          64.9060   94.1055    9.7825 H       1  UNL1        0.1527
     42 O          67.6244   94.6631    9.9184 O.3     1  UNL1       -0.4306
     43 C          67.4713   94.9888    8.4621 C.3     1  UNL1        0.2573
@<TRIPOS>BOND
     1    33    34    1
     2    34    27    1
     3    27    28   ar
     4    28    29   ar
     5    29    30   ar
     6    30    31   ar
     7    31    20    1
     8    20    21   ar
     9    21    22    1
    10    21    23   ar
    11    23    24   ar
    12    24    25   ar
    13    25    26   ar
    14    26     1    1
    15     1     2    1
    16     1    35    1
    17    35    36    1
    18    36    37    1
    19    37    38    1
    20    38    39   am
    21    39    40    2
    22    39    42    1
    23    42    43    1
    24     4     1    1
    25     4     5    1
    26     5     6    1
    27     6     7    1
    28     7     8    1
    29     8     9   am
    30     9    10    2
    31    12     9    1
    32    12    13    1
    33    13    14    1
    34    14    15    1
    35    15    17    1
    36    17    18    1
    37    15    16    1
    38     8    11    1
    39    31    32   ar
    40    32    27   ar
    41    26    20   ar
    42    11     4    1
    43    16    12    1
    44     2     3    1
    45    38    41    1
    46    17    19    1
@<TRIPOS>MOLECULE
*****
 43 46 0 0 0
SMALL
GASTEIGER

@<TRIPOS>ATOM
      1 C          63.7295   89.8851   14.4247 C.3     1  UNL1        0.1085
      2 O          64.6071   89.7927   15.6376 O.3     1  UNL1       -0.3826
      3 H          64.7102   90.6737   16.0300 H       1  UNL1        0.2107
      4 C          63.8708   88.4073   14.2099 C.3     1  UNL1        0.0484
      5 C          64.5366   87.5582   15.2518 C.3     1  UNL1        0.0061
      6 C          64.6779   86.0804   15.0369 C.3     1  UNL1        0.0217
      7 C          64.1533   85.4517   13.7801 C.3     1  UNL1        0.0934
      8 N          63.4875   86.3009   12.7381 N.am    1  UNL1       -0.2795
      9 C          62.9629   85.6721   11.4813 C.2     1  UNL1        0.2252
     10 O          62.2971   86.5212   10.4393 O.2     1  UNL1       -0.2749
     11 C          63.3462   87.7786   12.9530 C.3     1  UNL1        0.0960
     12 C          63.1042   84.1944   11.2664 C.3     1  UNL1        0.0781
     13 C          63.7525   83.5330   10.0865 C.3     1  UNL1        0.0105
     14 C          63.6710   82.0483   10.2846 C.3     1  UNL1        0.0162
     15 C          62.9723   81.7922   11.5870 C.3     1  UNL1        0.0545
     16 C          62.6220   83.1185   12.1938 C.3     1  UNL1        0.0248
     17 N          62.6760   80.4461   12.1787 N.3     1  UNL1       -0.2974
     18 C          61.9848   80.3460   13.5062 C.3     1  UNL1        0.0858
     19 H          63.5695   79.9635   12.2748 H       1  UNL1        0.1232
     20 C          63.3285   90.7144   11.9954 C.ar    1  UNL1        0.0088
     21 C          62.4509   90.8068   10.7825 C.ar    1  UNL1        0.0574
     22 CL         62.9277   91.5436    9.5661 Cl      1  UNL1       -0.0823
     23 C          61.0964   90.1623   10.7859 C.ar    1  UNL1        0.0114
     24 C          60.6196   89.4254   12.0024 C.ar    1  UNL1        0.0006
     25 C          61.4973   89.3330   13.2153 C.ar    1  UNL1       -0.0020
     26 C          62.8517   89.9775   13.2118 C.ar    1  UNL1        0.0026
     27 C          66.4142   92.9513   10.8886 C.ar    1  UNL1       -0.0222
     28 C          67.3920   92.6478   11.9848 C.ar    1  UNL1       -0.0043
     29 C          67.0153   91.6999   13.0846 C.ar    1  UNL1       -0.0003
     30 C          65.6608   91.0554   13.0881 C.ar    1  UNL1       -0.0000
     31 C          64.6831   91.3589   11.9919 C.ar    1  UNL1        0.0003
     32 C          65.0598   92.3068   10.8921 C.ar    1  UNL1       -0.0042
     33 C          68.1199   93.7660    9.1062 C.3     1  UNL1        0.0050
     34 C          66.7909   93.8992    9.7888 C.3     1  UNL1        0.0264
     35 C          63.5882   91.3629   14.6396 C.3     1  UNL1        0.0329
     36 C          63.6815   91.9317   16.0244 C.3     1  UNL1        0.0241
     37 C          65.0217   92.1057   16.6750 C.3     1  UNL1        0.0928
     38 N          65.8863   93.2759   16.3102 N.am    1  UNL1       -0.2707
     39 C          67.3553   93.0798   16.0789 C.2     1  UNL1        0.4017
     40 O          67.9598   91.7135   16.2125 O.2     1  UNL1       -0.2264
     41 H          65.4896   94.1727   16.2225 H       1  UNL1        0.1527
     42 O          68.2199   94.2501   15.7141 O.3     1  UNL1       -0.4306
     43 C          69.6669   94.2655   16.1092 C.3     1  UNL1        0.2573
@<TRIPOS>BOND
     1    33    34    1
     2    34    27    1
     3    27    28   ar
     4    28    29   ar
     5    29    30   ar
     6    30    31   ar
     7    31    20    1
     8    20    21   ar
     9    21    22    1
    10    21    23   ar
    11    23    24   ar
    12    24    25   ar
    13    25    26   ar
    14    26     1    1
    15     1     2    1
    16     1    35    1
    17    35    36    1
    18    36    37    1
    19    37    38    1
    20    38    39   am
    21    39    40    2
    22    39    42    1
    23    42    43    1
    24     4     1    1
    25     4     5    1
    26     5     6    1
    27     6     7    1
    28     7     8    1
    29     8     9   am
    30     9    10    2
    31    12     9    1
    32    12    13    1
    33    13    14    1
    34    14    15    1
    35    15    17    1
    36    17    18    1
    37    15    16    1
    38     8    11    1
    39    31    32   ar
    40    32    27   ar
    41    26    20   ar
    42    11     4    1
    43    16    12    1
    44     2     3    1
    45    38    41    1
    46    17    19    1
@<TRIPOS>MOLECULE
*****
 43 46 0 0 0
SMALL
GASTEIGER

@<TRIPOS>ATOM
      1 C          61.7629   89.3544    9.5928 C.3     1  UNL1        0.1085
      2 O          62.8360   89.1598    8.5630 O.3     1  UNL1       -0.3826
      3 H          62.4988   88.5995    7.8465 H       1  UNL1        0.2107
      4 C          62.6954   90.2045   10.4038 C.3     1  UNL1        0.0484
      5 C          63.2532   91.4701    9.8230 C.3     1  UNL1        0.0061
      6 C          64.1857   92.3202   10.6341 C.3     1  UNL1        0.0217
      7 C          64.5604   91.9048   12.0258 C.3     1  UNL1        0.0934
      8 N          64.0027   90.6392   12.6066 N.am    1  UNL1       -0.2795
      9 C          64.3775   90.2238   13.9984 C.2     1  UNL1        0.2252
     10 O          63.8197   88.9583   14.5791 O.2     1  UNL1       -0.2749
     11 C          63.0702   89.7891   11.7956 C.3     1  UNL1        0.0960
     12 C          65.3099   91.0740   14.8093 C.3     1  UNL1        0.0781
     13 C          64.9274   91.9375   15.9747 C.3     1  UNL1        0.0105
     14 C          66.1698   92.6071   16.4829 C.3     1  UNL1        0.0162
     15 C          67.3201   92.1574   15.6317 C.3     1  UNL1        0.0545
     16 C          66.7887   91.2099   14.5974 C.3     1  UNL1        0.0248
     17 N          68.7506   92.5808   15.7875 N.3     1  UNL1       -0.2974
     18 C          69.0836   94.0230   16.0309 C.3     1  UNL1        0.0858
     19 H          69.2334   92.3075   14.9316 H       1  UNL1        0.1232
     20 C          60.3677   88.4467   11.5877 C.ar    1  UNL1        0.0088
     21 C          59.2946   88.6412   12.6176 C.ar    1  UNL1        0.0574
     22 CL         58.9724   87.5389   13.5824 Cl      1  UNL1       -0.0823
     23 C          58.5438   89.9382   12.6826 C.ar    1  UNL1        0.0114
     24 C          58.8660   91.0405   11.7177 C.ar    1  UNL1        0.0006
     25 C          59.9391   90.8459   10.6878 C.ar    1  UNL1       -0.0020
     26 C          60.6899   89.5490   10.6228 C.ar    1  UNL1        0.0026
     27 C          62.8560   85.5027   12.5318 C.ar    1  UNL1       -0.0222
     28 C          62.6202   84.5559   11.3926 C.ar    1  UNL1       -0.0043
     29 C          61.6336   84.9060   10.3184 C.ar    1  UNL1       -0.0003
     30 C          60.8827   86.2029   10.3834 C.ar    1  UNL1       -0.0000
     31 C          61.1185   87.1497   11.5226 C.ar    1  UNL1        0.0003
     32 C          62.1052   86.7996   12.5968 C.ar    1  UNL1       -0.0042
     33 C          64.4830   83.7964   13.6232 C.3     1  UNL1        0.0050
     34 C          63.8427   85.1527   13.6061 C.3     1  UNL1        0.0264
     35 C          60.8305   88.5042    8.7819 C.3     1  UNL1        0.0329
     36 C          59.6275   89.1207    8.1317 C.3     1  UNL1        0.0241
     37 C          59.5415   89.2006    6.6363 C.3     1  UNL1        0.0928
     38 N          59.8198   90.4982    5.9373 N.am    1  UNL1       -0.2707
     39 C          58.6860   91.3137    5.3902 C.2     1  UNL1        0.4017
     40 O          57.2737   90.8316    5.5422 O.2     1  UNL1       -0.2264
     41 H          60.7468   90.8146    5.8375 H       1  UNL1        0.1527
     42 O          58.9644   92.6114    4.6912 O.3     1  UNL1       -0.4306
     43 C          59.8677   92.6396    3.4940 C.3     1  UNL1        0.2573
@<TRIPOS>BOND
     1    33    34    1
     2    34    27    1
     3    27    28   ar
     4    28    29   ar
     5    29    30   ar
     6    30    31   ar
     7    31    20    1
     8    20    21   ar
     9    21    22    1
    10    21    23   ar
    11    23    24   ar
    12    24    25   ar
    13    25    26   ar
    14    26     1    1
    15     1     2    1
    16     1    35    1
    17    35    36    1
    18    36    37    1
    19    37    38    1
    20    38    39   am
    21    39    40    2
    22    39    42    1
    23    42    43    1
    24     4     1    1
    25     4     5    1
    26     5     6    1
    27     6     7    1
    28     7     8    1
    29     8     9   am
    30     9    10    2
    31    12     9    1
    32    12    13    1
    33    13    14    1
    34    14    15    1
    35    15    17    1
    36    17    18    1
    37    15    16    1
    38     8    11    1
    39    31    32   ar
    40    32    27   ar
    41    26    20   ar
    42    11     4    1
    43    16    12    1
    44     2     3    1
    45    38    41    1
    46    17    19    1
