@<TRIPOS>MOLECULE
*****
 35 38 0 0 0
SMALL
GASTEIGER

@<TRIPOS>ATOM
      1 O          60.4123   88.7690   12.3460 O.2     1  UNL1       -0.2699
      2 C          61.0985   89.2568   11.1045 C.2     1  UNL1        0.2490
      3 N          62.2685   90.1892   11.2112 N.am    1  UNL1       -0.2760
      4 C          62.7525   90.6340   12.5595 C.3     1  UNL1        0.0954
      5 C          63.9226   91.5665   12.6663 C.3     1  UNL1        0.0416
      6 C          64.6087   92.0542   11.4247 C.3     1  UNL1        0.0807
      7 C          64.1247   91.6094   10.0764 C.3     1  UNL1        0.0416
      8 C          62.9546   90.6770    9.9697 C.3     1  UNL1        0.0954
      9 C          60.6145   88.8120    9.7562 C.ar    1  UNL1        0.0575
     10 C          59.7601   89.7247    8.9274 C.ar    1  UNL1        0.0045
     11 C          59.2761   89.2799    7.5791 C.ar    1  UNL1        0.0001
     12 C          59.6465   87.9224    7.0596 C.ar    1  UNL1       -0.0001
     13 C          60.5009   87.0096    7.8884 C.ar    1  UNL1        0.0040
     14 C          60.9849   87.4544    9.2367 C.ar    1  UNL1        0.0758
     15 C          61.8392   86.5416   10.0655 C.3     1  UNL1        0.4187
     16 F          62.6935   85.6289   10.8943 F       1  UNL1       -0.1659
     17 F          60.6268   86.1029   10.8320 F       1  UNL1       -0.1659
     18 F          63.0516   86.9804    9.2989 F       1  UNL1       -0.1659
     19 N          65.7787   92.9867   11.5315 N.pl3   1  UNL1       -0.2872
     20 C          66.6789   92.9264   12.7298 C.ar    1  UNL1        0.0515
     21 C          67.7716   91.9010   12.7962 C.ar    1  UNL1        0.0148
     22 C          68.6717   91.8407   13.9946 C.ar    1  UNL1        0.0051
     23 C          68.4793   92.8059   15.1265 C.ar    1  UNL1        0.0715
     24 C          67.3865   93.8314   15.0602 C.ar    1  UNL1        0.0051
     25 C          66.4863   93.8917   13.8618 C.ar    1  UNL1        0.0148
     26 C          69.3794   92.7456   16.3249 C.3     1  UNL1        0.4186
     27 F          70.2796   92.6853   17.5232 F       1  UNL1       -0.1659
     28 F          69.9021   94.1138   16.0011 F       1  UNL1       -0.1659
     29 F          68.8568   91.3774   16.6487 F       1  UNL1       -0.1659
     30 C          66.0486   93.9795   10.4399 C.ar    1  UNL1        0.0710
     31 C          67.0308   93.6523    9.3545 C.ar    1  UNL1        0.0180
     32 C          67.3007   94.6451    8.2630 C.ar    1  UNL1        0.0220
     33 C          66.5883   95.9651    8.2568 C.ar    1  UNL1        0.0990
     34 N          65.6061   96.2924    9.3422 N.ar    1  UNL1       -0.2410
     35 C          65.3362   95.2996   10.4338 C.ar    1  UNL1        0.1136
@<TRIPOS>BOND
     1     1     2    2
     2     2     9    1
     3     9    10   ar
     4    10    11   ar
     5    11    12   ar
     6    12    13   ar
     7    13    14   ar
     8    14    15    1
     9    15    16    1
    10    15    17    1
    11    15    18    1
    12     2     3   am
    13     3     4    1
    14     4     5    1
    15     5     6    1
    16     6    19    1
    17    19    20    1
    18    20    21   ar
    19    21    22   ar
    20    22    23   ar
    21    23    26    1
    22    26    27    1
    23    26    28    1
    24    26    29    1
    25    23    24   ar
    26    24    25   ar
    27    19    30    1
    28    30    31   ar
    29    31    32   ar
    30    32    33   ar
    31    33    34   ar
    32    34    35   ar
    33     6     7    1
    34     7     8    1
    35    14     9   ar
    36     8     3    1
    37    25    20   ar
    38    35    30   ar
@<TRIPOS>MOLECULE
*****
 35 38 0 0 0
SMALL
GASTEIGER

@<TRIPOS>ATOM
      1 O          66.9391   95.0473   12.8353 O.2     1  UNL1       -0.2699
      2 C          66.1847   94.4068   11.7081 C.2     1  UNL1        0.2490
      3 N          65.4336   93.1291   11.9388 N.am    1  UNL1       -0.2760
      4 C          65.4370   92.4918   13.2967 C.3     1  UNL1        0.0954
      5 C          64.6859   91.2140   13.5273 C.3     1  UNL1        0.0416
      6 C          63.9315   90.5735   12.4001 C.3     1  UNL1        0.0807
      7 C          63.9281   91.2108   11.0422 C.3     1  UNL1        0.0416
      8 C          64.6792   92.4885   10.8115 C.3     1  UNL1        0.0954
      9 C          66.1813   95.0441   10.3502 C.ar    1  UNL1        0.0575
     10 C          65.2862   96.2154   10.0736 C.ar    1  UNL1        0.0045
     11 C          65.2828   96.8527    8.7157 C.ar    1  UNL1        0.0001
     12 C          66.1746   96.3186    7.6344 C.ar    1  UNL1       -0.0001
     13 C          67.0698   95.1471    7.9109 C.ar    1  UNL1        0.0040
     14 C          67.0732   94.5099    9.2688 C.ar    1  UNL1        0.0758
     15 C          67.9684   93.3385    9.5454 C.3     1  UNL1        0.4187
     16 F          68.8635   92.1671    9.8219 F       1  UNL1       -0.1659
     17 F          69.1467   94.2617    9.6415 F       1  UNL1       -0.1659
     18 F          66.7900   92.4153    9.4492 F       1  UNL1       -0.1659
     19 N          63.1805   89.2958   12.6308 N.pl3   1  UNL1       -0.2872
     20 C          62.2678   88.7598   11.5679 C.ar    1  UNL1        0.0515
     21 C          62.5645   87.4398   10.9203 C.ar    1  UNL1        0.0148
     22 C          61.6519   86.9038    9.8574 C.ar    1  UNL1        0.0051
     23 C          60.4426   87.6879    9.4420 C.ar    1  UNL1        0.0715
     24 C          60.1458   89.0081   10.0896 C.ar    1  UNL1        0.0051
     25 C          61.0584   89.5440   11.1525 C.ar    1  UNL1        0.0148
     26 C          59.5299   87.1520    8.3790 C.3     1  UNL1        0.4186
     27 F          58.6173   86.6160    7.3161 F       1  UNL1       -0.1659
     28 F          58.9688   88.5269    8.1676 F       1  UNL1       -0.1659
     29 F          60.0911   85.7771    8.5905 F       1  UNL1       -0.1659
     30 C          63.3420   88.5539   13.9245 C.ar    1  UNL1        0.0710
     31 C          64.0534   87.2336   13.9482 C.ar    1  UNL1        0.0180
     32 C          64.2150   86.4918   15.2418 C.ar    1  UNL1        0.0220
     33 C          63.6651   87.0703   16.5119 C.ar    1  UNL1        0.0990
     34 N          62.9537   88.3906   16.4882 N.ar    1  UNL1       -0.2410
     35 C          62.7921   89.1324   15.1946 C.ar    1  UNL1        0.1136
@<TRIPOS>BOND
     1     1     2    2
     2     2     9    1
     3     9    10   ar
     4    10    11   ar
     5    11    12   ar
     6    12    13   ar
     7    13    14   ar
     8    14    15    1
     9    15    16    1
    10    15    17    1
    11    15    18    1
    12     2     3   am
    13     3     4    1
    14     4     5    1
    15     5     6    1
    16     6    19    1
    17    19    20    1
    18    20    21   ar
    19    21    22   ar
    20    22    23   ar
    21    23    26    1
    22    26    27    1
    23    26    28    1
    24    26    29    1
    25    23    24   ar
    26    24    25   ar
    27    19    30    1
    28    30    31   ar
    29    31    32   ar
    30    32    33   ar
    31    33    34   ar
    32    34    35   ar
    33     6     7    1
    34     7     8    1
    35    14     9   ar
    36     8     3    1
    37    25    20   ar
    38    35    30   ar
@<TRIPOS>MOLECULE
*****
 35 38 0 0 0
SMALL
GASTEIGER

@<TRIPOS>ATOM
      1 O          64.6337   93.1782   11.3278 O.2     1  UNL1       -0.2699
      2 C          64.7004   92.0069   12.2624 C.2     1  UNL1        0.2490
      3 N          64.0361   90.7138   11.8929 N.am    1  UNL1       -0.2760
      4 C          63.3051   90.5920   10.5887 C.3     1  UNL1        0.0954
      5 C          62.6408   89.2988   10.2192 C.3     1  UNL1        0.0416
      6 C          62.7075   88.1275   11.1538 C.3     1  UNL1        0.0807
      7 C          63.4385   88.2493   12.4580 C.3     1  UNL1        0.0416
      8 C          64.1027   89.5424   12.8275 C.3     1  UNL1        0.0954
      9 C          65.4313   92.1286   13.5666 C.ar    1  UNL1        0.0575
     10 C          64.6713   92.0875   14.8591 C.ar    1  UNL1        0.0045
     11 C          65.4022   92.2093   16.1632 C.ar    1  UNL1        0.0001
     12 C          66.8933   92.3722   16.1749 C.ar    1  UNL1       -0.0001
     13 C          67.6534   92.4133   14.8824 C.ar    1  UNL1        0.0040
     14 C          66.9225   92.2915   13.5782 C.ar    1  UNL1        0.0758
     15 C          67.6826   92.3327   12.2858 C.3     1  UNL1        0.4187
     16 F          68.4426   92.3738   10.9933 F       1  UNL1       -0.1659
     17 F          67.0355   93.6428   11.9469 F       1  UNL1       -0.1659
     18 F          68.3296   91.0226   12.6246 F       1  UNL1       -0.1659
     19 N          62.0432   86.8344   10.7843 N.pl3   1  UNL1       -0.2872
     20 C          62.4342   85.5646   11.4805 C.ar    1  UNL1        0.0515
     21 C          62.2206   85.4232   12.9584 C.ar    1  UNL1        0.0148
     22 C          62.6116   84.1533   13.6546 C.ar    1  UNL1        0.0051
     23 C          63.2162   83.0249   12.8728 C.ar    1  UNL1        0.0715
     24 C          63.4298   83.1664   11.3948 C.ar    1  UNL1        0.0051
     25 C          63.0388   84.4362   10.6986 C.ar    1  UNL1        0.0148
     26 C          63.6071   81.7551   13.5690 C.3     1  UNL1        0.4186
     27 F          63.9981   80.4853   14.2652 F       1  UNL1       -0.1659
     28 F          63.1423   80.9621   12.3836 F       1  UNL1       -0.1659
     29 F          64.0720   82.5481   14.7543 F       1  UNL1       -0.1659
     30 C          60.9879   86.8111    9.7185 C.ar    1  UNL1        0.0710
     31 C          61.1917   85.9914    8.4790 C.ar    1  UNL1        0.0180
     32 C          60.1364   85.9682    7.4133 C.ar    1  UNL1        0.0220
     33 C          58.8772   86.7646    7.5871 C.ar    1  UNL1        0.0990
     34 N          58.6734   87.5843    8.8267 N.ar    1  UNL1       -0.2410
     35 C          59.7287   87.6076    9.8923 C.ar    1  UNL1        0.1136
@<TRIPOS>BOND
     1     1     2    2
     2     2     9    1
     3     9    10   ar
     4    10    11   ar
     5    11    12   ar
     6    12    13   ar
     7    13    14   ar
     8    14    15    1
     9    15    16    1
    10    15    17    1
    11    15    18    1
    12     2     3   am
    13     3     4    1
    14     4     5    1
    15     5     6    1
    16     6    19    1
    17    19    20    1
    18    20    21   ar
    19    21    22   ar
    20    22    23   ar
    21    23    26    1
    22    26    27    1
    23    26    28    1
    24    26    29    1
    25    23    24   ar
    26    24    25   ar
    27    19    30    1
    28    30    31   ar
    29    31    32   ar
    30    32    33   ar
    31    33    34   ar
    32    34    35   ar
    33     6     7    1
    34     7     8    1
    35    14     9   ar
    36     8     3    1
    37    25    20   ar
    38    35    30   ar
@<TRIPOS>MOLECULE
*****
 35 38 0 0 0
SMALL
GASTEIGER

@<TRIPOS>ATOM
      1 O          66.2033   94.2260   13.5853 O.2     1  UNL1       -0.2699
      2 C          65.8136   93.8053   12.1992 C.2     1  UNL1        0.2490
      3 N          65.0414   92.5365   11.9897 N.am    1  UNL1       -0.2760
      4 C          64.6589   91.6884   13.1663 C.3     1  UNL1        0.0954
      5 C          63.8866   90.4196   12.9568 C.3     1  UNL1        0.0416
      6 C          63.4970   89.9990   11.5707 C.3     1  UNL1        0.0807
      7 C          63.8795   90.8471   10.3941 C.3     1  UNL1        0.0416
      8 C          64.6517   92.1158   10.6036 C.3     1  UNL1        0.0954
      9 C          66.1961   94.6534   11.0226 C.ar    1  UNL1        0.0575
     10 C          65.5511   95.9927   10.8222 C.ar    1  UNL1        0.0045
     11 C          65.9337   96.8409    9.6456 C.ar    1  UNL1        0.0001
     12 C          66.9611   96.3497    8.6695 C.ar    1  UNL1       -0.0001
     13 C          67.6062   95.0103    8.8698 C.ar    1  UNL1        0.0040
     14 C          67.2237   94.1622   10.0464 C.ar    1  UNL1        0.0758
     15 C          67.8687   92.8229   10.2468 C.3     1  UNL1        0.4187
     16 F          68.5136   91.4836   10.4472 F       1  UNL1       -0.1659
     17 F          67.9948   93.1033   11.7149 F       1  UNL1       -0.1659
     18 F          67.7425   92.5425    8.7787 F       1  UNL1       -0.1659
     19 N          62.7248   88.7302   11.3612 N.pl3   1  UNL1       -0.2872
     20 C          63.0237   87.5231   12.2000 C.ar    1  UNL1        0.0515
     21 C          62.5430   86.1703   11.7657 C.ar    1  UNL1        0.0148
     22 C          62.8419   84.9632   12.6045 C.ar    1  UNL1        0.0051
     23 C          63.6215   85.1089   13.8776 C.ar    1  UNL1        0.0715
     24 C          64.1022   86.4618   14.3121 C.ar    1  UNL1        0.0051
     25 C          63.8033   87.6689   13.4733 C.ar    1  UNL1        0.0148
     26 C          63.9204   83.9018   14.7164 C.3     1  UNL1        0.4186
     27 F          64.2192   82.6947   15.5552 F       1  UNL1       -0.1659
     28 F          65.3767   84.0288   14.3802 F       1  UNL1       -0.1659
     29 F          62.4640   83.7748   15.0526 F       1  UNL1       -0.1659
     30 C          61.6536   88.6685   10.3129 C.ar    1  UNL1        0.0710
     31 C          61.5766   87.4903    9.3878 C.ar    1  UNL1        0.0180
     32 C          60.5055   87.4287    8.3395 C.ar    1  UNL1        0.0220
     33 C          59.5114   88.5452    8.2164 C.ar    1  UNL1        0.0990
     34 N          59.5884   89.7233    9.1416 N.ar    1  UNL1       -0.2410
     35 C          60.6595   89.7850   10.1898 C.ar    1  UNL1        0.1136
@<TRIPOS>BOND
     1     1     2    2
     2     2     9    1
     3     9    10   ar
     4    10    11   ar
     5    11    12   ar
     6    12    13   ar
     7    13    14   ar
     8    14    15    1
     9    15    16    1
    10    15    17    1
    11    15    18    1
    12     2     3   am
    13     3     4    1
    14     4     5    1
    15     5     6    1
    16     6    19    1
    17    19    20    1
    18    20    21   ar
    19    21    22   ar
    20    22    23   ar
    21    23    26    1
    22    26    27    1
    23    26    28    1
    24    26    29    1
    25    23    24   ar
    26    24    25   ar
    27    19    30    1
    28    30    31   ar
    29    31    32   ar
    30    32    33   ar
    31    33    34   ar
    32    34    35   ar
    33     6     7    1
    34     7     8    1
    35    14     9   ar
    36     8     3    1
    37    25    20   ar
    38    35    30   ar
@<TRIPOS>MOLECULE
*****
 35 38 0 0 0
SMALL
GASTEIGER

@<TRIPOS>ATOM
      1 O          64.7789   83.0915   15.6063 O.2     1  UNL1       -0.2699
      2 C          63.8393   83.3815   14.4735 C.2     1  UNL1        0.2490
      3 N          63.6643   84.7891   13.9858 N.am    1  UNL1       -0.2760
      4 C          64.4288   85.9069   14.6309 C.3     1  UNL1        0.0954
      5 C          64.2538   87.3146   14.1432 C.3     1  UNL1        0.0416
      6 C          63.3142   87.6045   13.0105 C.3     1  UNL1        0.0807
      7 C          62.5497   86.4867   12.3654 C.3     1  UNL1        0.0416
      8 C          62.7247   85.0791   12.8530 C.3     1  UNL1        0.0954
      9 C          63.0748   82.2637   13.8284 C.ar    1  UNL1        0.0575
     10 C          62.0436   81.5092   14.6141 C.ar    1  UNL1        0.0045
     11 C          61.2790   80.3914   13.9690 C.ar    1  UNL1        0.0001
     12 C          61.5457   80.0282   12.5383 C.ar    1  UNL1       -0.0001
     13 C          62.5769   80.7828   11.7526 C.ar    1  UNL1        0.0040
     14 C          63.3415   81.9005   12.3977 C.ar    1  UNL1        0.0758
     15 C          64.3726   82.6551   11.6120 C.3     1  UNL1        0.4187
     16 F          65.4038   83.4097   10.8264 F       1  UNL1       -0.1659
     17 F          65.4527   82.0878   12.4848 F       1  UNL1       -0.1659
     18 F          63.2926   83.2224   10.7393 F       1  UNL1       -0.1659
     19 N          63.1392   89.0121   12.5228 N.pl3   1  UNL1       -0.2872
     20 C          64.0496   90.0963   13.0186 C.ar    1  UNL1        0.0515
     21 C          64.6327   90.0134   14.3980 C.ar    1  UNL1        0.0148
     22 C          65.5431   91.0976   14.8938 C.ar    1  UNL1        0.0051
     23 C          65.8703   92.2646   14.0101 C.ar    1  UNL1        0.0715
     24 C          65.2872   92.3475   12.6306 C.ar    1  UNL1        0.0051
     25 C          64.3768   91.2633   12.1348 C.ar    1  UNL1        0.0148
     26 C          66.7807   93.3487   14.5059 C.3     1  UNL1        0.4186
     27 F          67.6911   94.4329   15.0017 F       1  UNL1       -0.1659
     28 F          67.1772   92.4851   15.6664 F       1  UNL1       -0.1659
     29 F          66.3842   94.2124   13.3454 F       1  UNL1       -0.1659
     30 C          62.0537   89.3356   11.5393 C.ar    1  UNL1        0.0710
     31 C          62.2141   88.9620   10.0955 C.ar    1  UNL1        0.0180
     32 C          61.1287   89.2855    9.1121 C.ar    1  UNL1        0.0220
     33 C          59.8829   89.9827    9.5725 C.ar    1  UNL1        0.0990
     34 N          59.7225   90.3564   11.0163 N.ar    1  UNL1       -0.2410
     35 C          60.8080   90.0328   11.9997 C.ar    1  UNL1        0.1136
@<TRIPOS>BOND
     1     1     2    2
     2     2     9    1
     3     9    10   ar
     4    10    11   ar
     5    11    12   ar
     6    12    13   ar
     7    13    14   ar
     8    14    15    1
     9    15    16    1
    10    15    17    1
    11    15    18    1
    12     2     3   am
    13     3     4    1
    14     4     5    1
    15     5     6    1
    16     6    19    1
    17    19    20    1
    18    20    21   ar
    19    21    22   ar
    20    22    23   ar
    21    23    26    1
    22    26    27    1
    23    26    28    1
    24    26    29    1
    25    23    24   ar
    26    24    25   ar
    27    19    30    1
    28    30    31   ar
    29    31    32   ar
    30    32    33   ar
    31    33    34   ar
    32    34    35   ar
    33     6     7    1
    34     7     8    1
    35    14     9   ar
    36     8     3    1
    37    25    20   ar
    38    35    30   ar
@<TRIPOS>MOLECULE
*****
 35 38 0 0 0
SMALL
GASTEIGER

@<TRIPOS>ATOM
      1 O          65.4089   92.7971   13.7653 O.2     1  UNL1       -0.2699
      2 C          65.1892   92.5762   12.2979 C.2     1  UNL1        0.2490
      3 N          64.4071   91.3859   11.8275 N.am    1  UNL1       -0.2760
      4 C          63.8447   90.4163   12.8243 C.3     1  UNL1        0.0954
      5 C          63.0626   89.2259   12.3538 C.3     1  UNL1        0.0416
      6 C          62.8429   89.0051   10.8865 C.3     1  UNL1        0.0807
      7 C          63.4053   89.9747    9.8897 C.3     1  UNL1        0.0416
      8 C          64.1874   91.1650   10.3601 C.3     1  UNL1        0.0954
      9 C          65.7516   93.5458   11.3011 C.ar    1  UNL1        0.0575
     10 C          64.9791   94.7786   10.9359 C.ar    1  UNL1        0.0045
     11 C          65.5415   95.7482    9.9390 C.ar    1  UNL1        0.0001
     12 C          66.8763   95.4849    9.3075 C.ar    1  UNL1       -0.0001
     13 C          67.6488   94.2521    9.6727 C.ar    1  UNL1        0.0040
     14 C          67.0864   93.2825   10.6695 C.ar    1  UNL1        0.0758
     15 C          67.8589   92.0497   11.0348 C.3     1  UNL1        0.4187
     16 F          68.6313   90.8168   11.4001 F       1  UNL1       -0.1659
     17 F          67.7391   91.5564    9.6233 F       1  UNL1       -0.1659
     18 F          67.9787   92.5429   12.4463 F       1  UNL1       -0.1659
     19 N          62.0608   87.8148   10.4160 N.pl3   1  UNL1       -0.2872
     20 C          62.3810   86.4492   10.9477 C.ar    1  UNL1        0.0515
     21 C          62.2466   86.1649   12.4143 C.ar    1  UNL1        0.0148
     22 C          62.5667   84.7993   12.9460 C.ar    1  UNL1        0.0051
     23 C          63.0213   83.7180   12.0111 C.ar    1  UNL1        0.0715
     24 C          63.1557   84.0023   10.5444 C.ar    1  UNL1        0.0051
     25 C          62.8356   85.3679   10.0127 C.ar    1  UNL1        0.0148
     26 C          63.3414   82.3525   12.5428 C.3     1  UNL1        0.4186
     27 F          63.6616   80.9869   13.0745 F       1  UNL1       -0.1659
     28 F          63.9926   82.9726   13.7434 F       1  UNL1       -0.1659
     29 F          62.6902   81.7323   11.3422 F       1  UNL1       -0.1659
     30 C          60.9586   87.9900    9.4138 C.ar    1  UNL1        0.0710
     31 C          60.2409   86.7899    8.8708 C.ar    1  UNL1        0.0180
     32 C          59.1387   86.9652    7.8687 C.ar    1  UNL1        0.0220
     33 C          58.7541   88.3404    7.4095 C.ar    1  UNL1        0.0990
     34 N          59.4718   89.5404    7.9525 N.ar    1  UNL1       -0.2410
     35 C          60.5740   89.3652    8.9546 C.ar    1  UNL1        0.1136
@<TRIPOS>BOND
     1     1     2    2
     2     2     9    1
     3     9    10   ar
     4    10    11   ar
     5    11    12   ar
     6    12    13   ar
     7    13    14   ar
     8    14    15    1
     9    15    16    1
    10    15    17    1
    11    15    18    1
    12     2     3   am
    13     3     4    1
    14     4     5    1
    15     5     6    1
    16     6    19    1
    17    19    20    1
    18    20    21   ar
    19    21    22   ar
    20    22    23   ar
    21    23    26    1
    22    26    27    1
    23    26    28    1
    24    26    29    1
    25    23    24   ar
    26    24    25   ar
    27    19    30    1
    28    30    31   ar
    29    31    32   ar
    30    32    33   ar
    31    33    34   ar
    32    34    35   ar
    33     6     7    1
    34     7     8    1
    35    14     9   ar
    36     8     3    1
    37    25    20   ar
    38    35    30   ar
@<TRIPOS>MOLECULE
*****
 35 38 0 0 0
SMALL
GASTEIGER

@<TRIPOS>ATOM
      1 O          64.6500   82.7875   14.6853 O.2     1  UNL1       -0.2699
      2 C          64.0704   83.2751   13.3905 C.2     1  UNL1        0.2490
      3 N          63.8157   84.7393   13.1870 N.am    1  UNL1       -0.2760
      4 C          64.1405   85.7158   14.2783 C.3     1  UNL1        0.0954
      5 C          63.8858   87.1800   14.0747 C.3     1  UNL1        0.0416
      6 C          63.3063   87.6676   12.7800 C.3     1  UNL1        0.0807
      7 C          62.9814   86.6910   11.6888 C.3     1  UNL1        0.0416
      8 C          63.2361   85.2269   11.8923 C.3     1  UNL1        0.0954
      9 C          63.7456   82.2986   12.2993 C.ar    1  UNL1        0.0575
     10 C          64.3624   82.4587   10.9415 C.ar    1  UNL1        0.0045
     11 C          64.0376   81.4821    9.8502 C.ar    1  UNL1        0.0001
     12 C          63.0959   80.3455   10.1168 C.ar    1  UNL1       -0.0001
     13 C          62.4790   80.1853   11.4747 C.ar    1  UNL1        0.0040
     14 C          62.8038   81.1619   12.5660 C.ar    1  UNL1        0.0758
     15 C          62.1870   81.0018   13.9238 C.3     1  UNL1        0.4187
     16 F          61.5701   80.8417   15.2817 F       1  UNL1       -0.1659
     17 F          63.2354   79.9902   14.2808 F       1  UNL1       -0.1659
     18 F          61.1385   82.0133   13.5668 F       1  UNL1       -0.1659
     19 N          63.0515   89.1317   12.5765 N.pl3   1  UNL1       -0.2872
     20 C          63.9786   90.1451   13.1794 C.ar    1  UNL1        0.0515
     21 C          64.3435   90.0575   14.6317 C.ar    1  UNL1        0.0148
     22 C          65.2706   91.0709   15.2345 C.ar    1  UNL1        0.0051
     23 C          65.8327   92.1720   14.3852 C.ar    1  UNL1        0.0715
     24 C          65.4678   92.2597   12.9328 C.ar    1  UNL1        0.0051
     25 C          64.5408   91.2463   12.3299 C.ar    1  UNL1        0.0148
     26 C          66.7598   93.1855   14.9881 C.3     1  UNL1        0.4186
     27 F          67.6868   94.1989   15.5909 F       1  UNL1       -0.1659
     28 F          67.1312   93.6623   13.6152 F       1  UNL1       -0.1659
     29 F          66.3883   92.7086   16.3609 F       1  UNL1       -0.1659
     30 C          61.8697   89.5824   11.7701 C.ar    1  UNL1        0.0710
     31 C          61.9747   89.6826   10.2772 C.ar    1  UNL1        0.0180
     32 C          60.7929   90.1333    9.4708 C.ar    1  UNL1        0.0220
     33 C          59.5062   90.4838   10.1574 C.ar    1  UNL1        0.0990
     34 N          59.4012   90.3836   11.6504 N.ar    1  UNL1       -0.2410
     35 C          60.5830   89.9329   12.4567 C.ar    1  UNL1        0.1136
@<TRIPOS>BOND
     1     1     2    2
     2     2     9    1
     3     9    10   ar
     4    10    11   ar
     5    11    12   ar
     6    12    13   ar
     7    13    14   ar
     8    14    15    1
     9    15    16    1
    10    15    17    1
    11    15    18    1
    12     2     3   am
    13     3     4    1
    14     4     5    1
    15     5     6    1
    16     6    19    1
    17    19    20    1
    18    20    21   ar
    19    21    22   ar
    20    22    23   ar
    21    23    26    1
    22    26    27    1
    23    26    28    1
    24    26    29    1
    25    23    24   ar
    26    24    25   ar
    27    19    30    1
    28    30    31   ar
    29    31    32   ar
    30    32    33   ar
    31    33    34   ar
    32    34    35   ar
    33     6     7    1
    34     7     8    1
    35    14     9   ar
    36     8     3    1
    37    25    20   ar
    38    35    30   ar
@<TRIPOS>MOLECULE
*****
 35 38 0 0 0
SMALL
GASTEIGER

@<TRIPOS>ATOM
      1 O          60.5426   89.6390    8.7358 O.2     1  UNL1       -0.2699
      2 C          61.3177   88.5006    9.3303 C.2     1  UNL1        0.2490
      3 N          61.9648   88.6550   10.6746 N.am    1  UNL1       -0.2760
      4 C          61.8368   89.9478   11.4246 C.3     1  UNL1        0.0954
      5 C          62.4840   90.1021   12.7690 C.3     1  UNL1        0.0416
      6 C          63.2590   88.9638   13.3635 C.3     1  UNL1        0.0807
      7 C          63.3870   87.6710   12.6135 C.3     1  UNL1        0.0416
      8 C          62.7399   87.5166   11.2691 C.3     1  UNL1        0.0954
      9 C          61.4457   87.2079    8.5803 C.ar    1  UNL1        0.0575
     10 C          62.6936   86.3858    8.7102 C.ar    1  UNL1        0.0045
     11 C          62.8216   85.0931    7.9602 C.ar    1  UNL1        0.0001
     12 C          61.7017   84.6224    7.0804 C.ar    1  UNL1       -0.0001
     13 C          60.4537   85.4444    6.9505 C.ar    1  UNL1        0.0040
     14 C          60.3257   86.7372    7.7004 C.ar    1  UNL1        0.0758
     15 C          59.0778   87.5592    7.5706 C.3     1  UNL1        0.4187
     16 F          57.8298   88.3813    7.4407 F       1  UNL1       -0.1659
     17 F          58.4610   86.8029    8.7097 F       1  UNL1       -0.1659
     18 F          59.6945   88.3155    6.4314 F       1  UNL1       -0.1659
     19 N          63.9061   89.1182   14.7078 N.pl3   1  UNL1       -0.2872
     20 C          64.8600   90.2490   14.9557 C.ar    1  UNL1        0.0515
     21 C          66.1617   90.3087   14.2127 C.ar    1  UNL1        0.0148
     22 C          67.1155   91.4395   14.4606 C.ar    1  UNL1        0.0051
     23 C          66.7677   92.5106   15.4513 C.ar    1  UNL1        0.0715
     24 C          65.4659   92.4509   16.1943 C.ar    1  UNL1        0.0051
     25 C          64.5121   91.3201   15.9465 C.ar    1  UNL1        0.0148
     26 C          67.7215   93.6414   15.6992 C.3     1  UNL1        0.4186
     27 F          68.6753   94.7723   15.9470 F       1  UNL1       -0.1659
     28 F          68.4214   92.8223   16.7428 F       1  UNL1       -0.1659
     29 F          67.0216   94.4606   14.6556 F       1  UNL1       -0.1659
     30 C          63.5994   88.1417   15.8045 C.ar    1  UNL1        0.0710
     31 C          62.9985   88.6237   17.0915 C.ar    1  UNL1        0.0180
     32 C          62.6918   87.6473   18.1880 C.ar    1  UNL1        0.0220
     33 C          62.9860   86.1888   17.9975 C.ar    1  UNL1        0.0990
     34 N          63.5869   85.7068   16.7105 N.ar    1  UNL1       -0.2410
     35 C          63.8936   86.6832   15.6140 C.ar    1  UNL1        0.1136
@<TRIPOS>BOND
     1     1     2    2
     2     2     9    1
     3     9    10   ar
     4    10    11   ar
     5    11    12   ar
     6    12    13   ar
     7    13    14   ar
     8    14    15    1
     9    15    16    1
    10    15    17    1
    11    15    18    1
    12     2     3   am
    13     3     4    1
    14     4     5    1
    15     5     6    1
    16     6    19    1
    17    19    20    1
    18    20    21   ar
    19    21    22   ar
    20    22    23   ar
    21    23    26    1
    22    26    27    1
    23    26    28    1
    24    26    29    1
    25    23    24   ar
    26    24    25   ar
    27    19    30    1
    28    30    31   ar
    29    31    32   ar
    30    32    33   ar
    31    33    34   ar
    32    34    35   ar
    33     6     7    1
    34     7     8    1
    35    14     9   ar
    36     8     3    1
    37    25    20   ar
    38    35    30   ar
@<TRIPOS>MOLECULE
*****
 35 38 0 0 0
SMALL
GASTEIGER

@<TRIPOS>ATOM
      1 O          62.3897   96.2328    1.7794 O.2     1  UNL1       -0.2699
      2 C          61.8604   94.9309    1.2548 C.2     1  UNL1        0.2490
      3 N          60.9274   94.9192    0.0804 N.am    1  UNL1       -0.2760
      4 C          60.5235   96.2094   -0.5694 C.3     1  UNL1        0.0954
      5 C          59.5904   96.1976   -1.7439 C.3     1  UNL1        0.0416
      6 C          59.0612   94.8958   -2.2684 C.3     1  UNL1        0.0807
      7 C          59.4651   93.6056   -1.6185 C.3     1  UNL1        0.0416
      8 C          60.3982   93.6173   -0.4441 C.3     1  UNL1        0.0954
      9 C          62.2643   93.6407    1.9047 C.ar    1  UNL1        0.0575
     10 C          61.2829   92.8899    2.7551 C.ar    1  UNL1        0.0045
     11 C          61.6868   91.5997    3.4050 C.ar    1  UNL1        0.0001
     12 C          63.0720   91.0604    3.2045 C.ar    1  UNL1       -0.0001
     13 C          64.0535   91.8113    2.3542 C.ar    1  UNL1        0.0040
     14 C          63.6496   93.1014    1.7043 C.ar    1  UNL1        0.0758
     15 C          64.6310   93.8523    0.8539 C.3     1  UNL1        0.4187
     16 F          65.6124   94.6031    0.0036 F       1  UNL1       -0.1659
     17 F          64.0419   93.2288   -0.3765 F       1  UNL1       -0.1659
     18 F          65.2201   94.4758    2.0844 F       1  UNL1       -0.1659
     19 N          58.1282   94.8841   -3.4428 N.pl3   1  UNL1       -0.2872
     20 C          56.6693   95.1710   -3.2445 C.ar    1  UNL1        0.0515
     21 C          55.8943   94.4275   -2.1974 C.ar    1  UNL1        0.0148
     22 C          54.4354   94.7143   -1.9991 C.ar    1  UNL1        0.0051
     23 C          53.7515   95.7447   -2.8479 C.ar    1  UNL1        0.0715
     24 C          54.5265   96.4883   -3.8951 C.ar    1  UNL1        0.0051
     25 C          55.9854   96.2014   -4.0934 C.ar    1  UNL1        0.0148
     26 C          52.2926   96.0316   -2.6496 C.3     1  UNL1        0.4186
     27 F          50.8337   96.3184   -2.4513 F       1  UNL1       -0.1659
     28 F          52.4210   95.6805   -1.1970 F       1  UNL1       -0.1659
     29 F          52.1642   96.3827   -4.1023 F       1  UNL1       -0.1659
     30 C          58.6540   94.5856   -4.8156 C.ar    1  UNL1        0.0710
     31 C          57.8191   93.8020   -5.7845 C.ar    1  UNL1        0.0180
     32 C          58.3450   93.5035   -7.1572 C.ar    1  UNL1        0.0220
     33 C          59.7057   93.9886   -7.5609 C.ar    1  UNL1        0.0990
     34 N          60.5407   94.7721   -6.5920 N.ar    1  UNL1       -0.2410
     35 C          60.0148   95.0706   -5.2193 C.ar    1  UNL1        0.1136
@<TRIPOS>BOND
     1     1     2    2
     2     2     9    1
     3     9    10   ar
     4    10    11   ar
     5    11    12   ar
     6    12    13   ar
     7    13    14   ar
     8    14    15    1
     9    15    16    1
    10    15    17    1
    11    15    18    1
    12     2     3   am
    13     3     4    1
    14     4     5    1
    15     5     6    1
    16     6    19    1
    17    19    20    1
    18    20    21   ar
    19    21    22   ar
    20    22    23   ar
    21    23    26    1
    22    26    27    1
    23    26    28    1
    24    26    29    1
    25    23    24   ar
    26    24    25   ar
    27    19    30    1
    28    30    31   ar
    29    31    32   ar
    30    32    33   ar
    31    33    34   ar
    32    34    35   ar
    33     6     7    1
    34     7     8    1
    35    14     9   ar
    36     8     3    1
    37    25    20   ar
    38    35    30   ar
