@<TRIPOS>MOLECULE
*****
 44 48 0 0 0
SMALL
GASTEIGER

@<TRIPOS>ATOM
      1 C          61.8091   93.6193   -0.4395 C.ar    1  UNL1        0.0096
      2 C          61.5756   92.9787   -1.7755 C.ar    1  UNL1        0.0355
      3 S          62.4217   93.6941   -2.7867 S.2     1  UNL1       -0.0863
      4 C          63.1781   94.7768   -2.0755 C.ar    1  UNL1        0.0337
      5 C          64.1626   95.7987   -2.5615 C.ar    1  UNL1        0.0283
      6 C          64.7686   96.7745   -1.5967 C.ar    1  UNL1        0.1008
      7 N          64.3900   96.7283   -0.1460 N.ar    1  UNL1       -0.2296
      8 C          63.4054   95.7063    0.3399 C.ar    1  UNL1        0.1258
      9 N          63.0267   95.6601    1.7906 N.pl3   1  UNL1       -0.3426
     10 C          62.7994   94.7305   -0.6248 C.ar    1  UNL1        0.0377
     11 H          63.4244   96.3005    2.4238 H       1  UNL1        0.1437
     12 H          62.3805   94.9893    2.1095 H       1  UNL1        0.1437
     13 C          59.8775   92.4183    3.4435 C.ar    1  UNL1        0.0516
     14 C          59.0295   92.8758    2.2939 C.ar    1  UNL1        0.0147
     15 C          59.6733   93.2762    0.9996 C.ar    1  UNL1        0.0013
     16 C          61.1652   93.2190    0.8548 C.ar    1  UNL1        0.0007
     17 C          62.0132   92.7614    2.0044 C.ar    1  UNL1        0.0013
     18 C          61.3694   92.3610    3.2987 C.ar    1  UNL1        0.0147
     19 N          59.1053   90.4306    6.7904 N.am    1  UNL1       -0.2681
     20 C          59.7492   90.8309    5.4961 C.2     1  UNL1        0.3082
     21 O          60.9085   90.0443    4.9603 O.2     1  UNL1       -0.2522
     22 N          59.2337   92.0179    4.7378 N.am    1  UNL1       -0.2681
     23 H          58.3444   90.9469    7.1421 H       1  UNL1        0.1564
     24 H          58.4728   92.5342    5.0894 H       1  UNL1        0.1564
     25 C          60.6518   86.8695    9.0658 C.ar    1  UNL1        0.1388
     26 C          59.7821   86.6692    7.8602 C.ar    1  UNL1        0.0382
     27 C          59.2666   87.8562    7.1018 C.ar    1  UNL1        0.0178
     28 C          59.6209   89.2435    7.5489 C.ar    1  UNL1        0.0518
     29 C          60.4906   89.4438    8.7546 C.ar    1  UNL1        0.0178
     30 C          61.0060   88.2567    9.5130 C.ar    1  UNL1        0.0382
     31 C          62.0071   85.8832   11.0508 C.3     1  UNL1        0.2525
     32 O          61.1673   85.6825    9.8243 O.3     1  UNL1       -0.4714
     33 C          64.5413   95.8449   -4.0122 C.ar    1  UNL1        0.0416
     34 C          64.0415   96.8343   -5.0228 C.ar    1  UNL1        0.1217
     35 N          64.6775   96.5107   -6.3422 N.ar    1  UNL1       -0.1676
     36 N          65.5704   95.3213   -6.1470 N.ar    1  UNL1       -0.2468
     37 C          65.4863   94.9098   -4.7070 C.ar    1  UNL1        0.0968
     38 C          66.4016   94.6596   -7.2059 C.3     1  UNL1        0.1591
     39 C          67.8723   94.9424   -7.2906 C.3     1  UNL1        0.1640
     40 O          68.8489   93.8091   -7.3988 O.3     1  UNL1       -0.3799
     41 H          69.7510   94.1628   -7.4437 H       1  UNL1        0.2105
     42 C          68.3663   96.3585   -7.2673 C.3     1  UNL1        0.1684
     43 O          69.7288   96.6686   -6.7219 O.3     1  UNL1       -0.3794
     44 H          69.7487   96.4740   -5.7719 H       1  UNL1        0.2105
@<TRIPOS>BOND
     1    31    32    1
     2    32    25    1
     3    25    26   ar
     4    26    27   ar
     5    27    28   ar
     6    28    19    1
     7    19    20   am
     8    20    21    2
     9    20    22   am
    10    22    13    1
    11    13    14   ar
    12    14    15   ar
    13    15    16   ar
    14    16     1    1
    15     1     2   ar
    16     2     3   ar
    17     3     4   ar
    18     4     5   ar
    19     5    33    1
    20    33    34   ar
    21    34    35   ar
    22    35    36   ar
    23    36    38    1
    24    38    39    1
    25    39    40    1
    26    39    42    1
    27    42    43    1
    28    36    37   ar
    29     5     6   ar
    30     6     7   ar
    31     7     8   ar
    32     8     9    1
    33     8    10   ar
    34    16    17   ar
    35    17    18   ar
    36    28    29   ar
    37    29    30   ar
    38    30    25   ar
    39    18    13   ar
    40    10     1   ar
    41    10     4   ar
    42    37    33   ar
    43    19    23    1
    44    22    24    1
    45    40    41    1
    46    43    44    1
    47     9    11    1
    48     9    12    1
@<TRIPOS>MOLECULE
*****
 44 48 0 0 0
SMALL
GASTEIGER

@<TRIPOS>ATOM
      1 C          61.9770   93.4968   -0.1650 C.ar    1  UNL1        0.0096
      2 C          61.6332   92.9920   -1.5350 C.ar    1  UNL1        0.0355
      3 S          62.5424   93.6663   -2.5192 S.2     1  UNL1       -0.0863
      4 C          63.4483   94.5878   -1.7574 C.ar    1  UNL1        0.0337
      5 C          64.5461   95.5088   -2.2007 C.ar    1  UNL1        0.0283
      6 C          65.2946   96.3251   -1.1889 C.ar    1  UNL1        0.1008
      7 N          64.9451   96.2203    0.2660 N.ar    1  UNL1       -0.2296
      8 C          63.8472   95.2993    0.7093 C.ar    1  UNL1        0.1258
      9 N          63.4978   95.1945    2.1642 N.pl3   1  UNL1       -0.3426
     10 C          63.0988   94.4831   -0.3025 C.ar    1  UNL1        0.0377
     11 H          63.9890   95.7302    2.8283 H       1  UNL1        0.1437
     12 H          62.7772   94.5900    2.4551 H       1  UNL1        0.1437
     13 C          59.9920   92.2681    3.6821 C.ar    1  UNL1        0.0516
     14 C          59.1864   92.9187    2.5969 C.ar    1  UNL1        0.0147
     15 C          59.8480   93.3283    1.3145 C.ar    1  UNL1        0.0013
     16 C          61.3153   93.0872    1.1173 C.ar    1  UNL1        0.0007
     17 C          62.1209   92.4365    2.2025 C.ar    1  UNL1        0.0013
     18 C          61.4593   92.0269    3.4849 C.ar    1  UNL1        0.0147
     19 N          59.1716   90.2547    7.0021 N.am    1  UNL1       -0.2681
     20 C          59.8333   90.6642    5.7198 C.2     1  UNL1        0.3082
     21 O          60.9980   89.8795    5.1928 O.2     1  UNL1       -0.2522
     22 N          59.3303   91.8585    4.9644 N.am    1  UNL1       -0.2681
     23 H          58.4072   90.7697    7.3480 H       1  UNL1        0.1564
     24 H          58.5658   92.3735    5.3103 H       1  UNL1        0.1564
     25 C          60.6806   86.6717    9.2683 C.ar    1  UNL1        0.1388
     26 C          61.0257   88.0547    9.7357 C.ar    1  UNL1        0.0382
     27 C          60.5227   89.2489    8.9803 C.ar    1  UNL1        0.0178
     28 C          59.6746   89.0603    7.7575 C.ar    1  UNL1        0.0518
     29 C          59.3295   87.6774    7.2902 C.ar    1  UNL1        0.0178
     30 C          59.8325   86.4831    8.0456 C.ar    1  UNL1        0.0382
     31 C          62.1889   85.6541   11.1229 C.3     1  UNL1        0.2525
     32 O          61.1836   85.4774   10.0237 O.3     1  UNL1       -0.4714
     33 C          64.8955   95.6136   -3.6556 C.ar    1  UNL1        0.0416
     34 C          65.3853   96.8449   -4.3583 C.ar    1  UNL1        0.1217
     35 N          65.6090   96.4978   -5.8004 N.ar    1  UNL1       -0.1676
     36 N          65.2574   95.0518   -5.9889 N.ar    1  UNL1       -0.2468
     37 C          64.8165   94.5052   -4.6634 C.ar    1  UNL1        0.0968
     38 C          65.3335   94.2866   -7.2768 C.3     1  UNL1        0.1591
     39 C          64.5102   93.0465   -7.4621 C.3     1  UNL1        0.1640
     40 O          63.0159   93.1442   -7.5489 O.3     1  UNL1       -0.3799
     41 H          62.6402   92.2578   -7.6675 H       1  UNL1        0.2105
     42 C          65.1812   91.7086   -7.5607 C.3     1  UNL1        0.1684
     43 O          64.9690   90.6822   -6.4877 O.3     1  UNL1       -0.3794
     44 H          65.3577   90.9979   -5.6570 H       1  UNL1        0.2105
@<TRIPOS>BOND
     1    31    32    1
     2    32    25    1
     3    25    26   ar
     4    26    27   ar
     5    27    28   ar
     6    28    19    1
     7    19    20   am
     8    20    21    2
     9    20    22   am
    10    22    13    1
    11    13    14   ar
    12    14    15   ar
    13    15    16   ar
    14    16     1    1
    15     1     2   ar
    16     2     3   ar
    17     3     4   ar
    18     4     5   ar
    19     5    33    1
    20    33    34   ar
    21    34    35   ar
    22    35    36   ar
    23    36    38    1
    24    38    39    1
    25    39    40    1
    26    39    42    1
    27    42    43    1
    28    36    37   ar
    29     5     6   ar
    30     6     7   ar
    31     7     8   ar
    32     8     9    1
    33     8    10   ar
    34    16    17   ar
    35    17    18   ar
    36    28    29   ar
    37    29    30   ar
    38    30    25   ar
    39    18    13   ar
    40    10     1   ar
    41    10     4   ar
    42    37    33   ar
    43    19    23    1
    44    22    24    1
    45    40    41    1
    46    43    44    1
    47     9    11    1
    48     9    12    1
@<TRIPOS>MOLECULE
*****
 44 48 0 0 0
SMALL
GASTEIGER

@<TRIPOS>ATOM
      1 C          61.1666   87.1660    9.7019 C.ar    1  UNL1        0.0096
      2 C          61.0375   85.6716    9.7130 C.ar    1  UNL1        0.0355
      3 S          61.8021   85.1491   10.8929 S.2     1  UNL1       -0.0863
      4 C          62.4038   86.3205   11.6111 C.ar    1  UNL1        0.0337
      5 C          63.2586   86.4131   12.8402 C.ar    1  UNL1        0.0283
      6 C          63.7207   87.7523   13.3332 C.ar    1  UNL1        0.1008
      7 N          63.3279   88.9989   12.5972 N.ar    1  UNL1       -0.2296
      8 C          62.4730   88.9062   11.3680 C.ar    1  UNL1        0.1258
      9 N          62.0803   90.1528   10.6319 N.pl3   1  UNL1       -0.3426
     10 C          62.0110   87.5670   10.8750 C.ar    1  UNL1        0.0377
     11 H          62.3835   91.0317   10.9555 H       1  UNL1        0.1437
     12 H          61.5192   90.0920    9.8252 H       1  UNL1        0.1437
     13 C          59.3411   89.9563    6.6800 C.ar    1  UNL1        0.0516
     14 C          59.9396   90.5044    7.9414 C.ar    1  UNL1        0.0147
     15 C          60.5481   89.5744    8.9488 C.ar    1  UNL1        0.0013
     16 C          60.5581   88.0961    8.6946 C.ar    1  UNL1        0.0007
     17 C          59.9596   87.5480    7.4332 C.ar    1  UNL1        0.0013
     18 C          59.3511   88.4780    6.4258 C.ar    1  UNL1        0.0147
     19 N          58.9798   92.4268    3.5952 N.am    1  UNL1       -0.2681
     20 C          59.5883   91.4967    4.6025 C.2     1  UNL1        0.3082
     21 O          61.0525   91.1769    4.5397 O.2     1  UNL1       -0.2522
     22 N          58.7326   90.8864    5.6727 N.am    1  UNL1       -0.2681
     23 H          58.0189   92.6367    3.6365 H       1  UNL1        0.1564
     24 H          57.7716   91.0963    5.7139 H       1  UNL1        0.1564
     25 C          61.5469   94.2578    0.3847 C.ar    1  UNL1        0.1388
     26 C          60.9853   92.8791    0.2005 C.ar    1  UNL1        0.0382
     27 C          60.1296   92.2689    1.2707 C.ar    1  UNL1        0.0178
     28 C          59.8356   93.0372    2.5250 C.ar    1  UNL1        0.0518
     29 C          60.3972   94.4158    2.7091 C.ar    1  UNL1        0.0178
     30 C          61.2529   95.0261    1.6390 C.ar    1  UNL1        0.0382
     31 C          63.6365   94.1567   -1.1558 C.3     1  UNL1        0.2525
     32 O          62.4026   94.8681   -0.6855 O.3     1  UNL1       -0.4714
     33 C          63.6514   85.1665   13.5763 C.ar    1  UNL1        0.0416
     34 C          64.5460   85.0973   14.7783 C.ar    1  UNL1        0.1217
     35 N          64.6661   83.6583   15.1845 N.ar    1  UNL1       -0.1676
     36 N          63.8456   82.8382   14.2335 N.ar    1  UNL1       -0.2468
     37 C          63.2185   83.7703   13.2395 C.ar    1  UNL1        0.0968
     38 C          63.6811   81.3477   14.2700 C.3     1  UNL1        0.1591
     39 C          62.4310   80.7177   13.7312 C.3     1  UNL1        0.1640
     40 O          62.5239   79.5825   12.7552 O.3     1  UNL1       -0.3799
     41 H          61.6311   79.2938   12.5091 H       1  UNL1        0.2105
     42 C          61.0880   81.2229   14.1684 C.3     1  UNL1        0.1684
     43 O          59.9705   80.2561   14.4260 O.3     1  UNL1       -0.3794
     44 H          59.7187   79.8241   13.5948 H       1  UNL1        0.2105
@<TRIPOS>BOND
     1    31    32    1
     2    32    25    1
     3    25    26   ar
     4    26    27   ar
     5    27    28   ar
     6    28    19    1
     7    19    20   am
     8    20    21    2
     9    20    22   am
    10    22    13    1
    11    13    14   ar
    12    14    15   ar
    13    15    16   ar
    14    16     1    1
    15     1     2   ar
    16     2     3   ar
    17     3     4   ar
    18     4     5   ar
    19     5    33    1
    20    33    34   ar
    21    34    35   ar
    22    35    36   ar
    23    36    38    1
    24    38    39    1
    25    39    40    1
    26    39    42    1
    27    42    43    1
    28    36    37   ar
    29     5     6   ar
    30     6     7   ar
    31     7     8   ar
    32     8     9    1
    33     8    10   ar
    34    16    17   ar
    35    17    18   ar
    36    28    29   ar
    37    29    30   ar
    38    30    25   ar
    39    18    13   ar
    40    10     1   ar
    41    10     4   ar
    42    37    33   ar
    43    19    23    1
    44    22    24    1
    45    40    41    1
    46    43    44    1
    47     9    11    1
    48     9    12    1
@<TRIPOS>MOLECULE
*****
 44 48 0 0 0
SMALL
GASTEIGER

@<TRIPOS>ATOM
      1 C          60.7321   87.5044    9.8544 C.ar    1  UNL1        0.0096
      2 C          60.4583   87.7765   11.3038 C.ar    1  UNL1        0.0355
      3 S          61.1790   86.7403   12.1142 S.2     1  UNL1       -0.0863
      4 C          61.8983   85.8277   11.1656 C.ar    1  UNL1        0.0337
      5 C          62.7690   84.6277   11.3931 C.ar    1  UNL1        0.0283
      6 C          63.3636   83.8999   10.2239 C.ar    1  UNL1        0.1008
      7 N          63.0874   84.3722    8.8273 N.ar    1  UNL1       -0.2296
      8 C          62.2166   85.5722    8.5998 C.ar    1  UNL1        0.1258
      9 N          61.9403   86.0445    7.2031 N.pl3   1  UNL1       -0.3426
     10 C          61.6221   86.2999    9.7689 C.ar    1  UNL1        0.0377
     11 H          62.3306   85.5668    6.4358 H       1  UNL1        0.1437
     12 H          61.3688   86.8321    7.0538 H       1  UNL1        0.1437
     13 C          59.1598   89.8836    6.3734 C.ar    1  UNL1        0.0516
     14 C          58.7367   88.4565    6.5587 C.ar    1  UNL1        0.0147
     15 C          59.2608   87.6634    7.7190 C.ar    1  UNL1        0.0013
     16 C          60.2080   88.2974    8.6941 C.ar    1  UNL1        0.0007
     17 C          60.6311   89.7245    8.5088 C.ar    1  UNL1        0.0013
     18 C          60.1070   90.5177    7.3484 C.ar    1  UNL1        0.0147
     19 N          59.0600   92.2328    3.1764 N.am    1  UNL1       -0.2681
     20 C          59.5841   91.4398    4.3367 C.2     1  UNL1        0.3082
     21 O          61.0567   91.4098    4.6207 O.2     1  UNL1       -0.2522
     22 N          58.6356   90.6767    5.2131 N.am    1  UNL1       -0.2681
     23 H          58.0935   92.2525    2.9900 H       1  UNL1        0.1564
     24 H          57.6691   90.6963    5.0267 H       1  UNL1        0.1564
     25 C          61.9054   94.5223    0.5472 C.ar    1  UNL1        0.1388
     26 C          61.1684   95.2273    1.6471 C.ar    1  UNL1        0.0382
     27 C          60.2200   94.4641    2.5235 C.ar    1  UNL1        0.0178
     28 C          60.0085   92.9960    2.3000 C.ar    1  UNL1        0.0518
     29 C          60.7456   92.2910    1.2001 C.ar    1  UNL1        0.0178
     30 C          61.6940   93.0542    0.3237 C.ar    1  UNL1        0.0382
     31 C          64.2361   94.7578   -0.5762 C.3     1  UNL1        0.2525
     32 O          62.8539   95.2854   -0.3291 O.3     1  UNL1       -0.4714
     33 C          63.0453   84.1555   12.7898 C.ar    1  UNL1        0.0416
     34 C          63.7353   82.8786   13.1685 C.ar    1  UNL1        0.1217
     35 N          63.7964   82.8111   14.6657 N.ar    1  UNL1       -0.1676
     36 N          63.1442   84.0463   15.2124 N.ar    1  UNL1       -0.2468
     37 C          62.6800   84.8773   14.0530 C.ar    1  UNL1        0.0968
     38 C          62.9844   84.3904   16.6636 C.3     1  UNL1        0.1591
     39 C          62.2556   85.6393   17.0625 C.3     1  UNL1        0.1640
     40 O          60.8192   85.8263   16.6728 O.3     1  UNL1       -0.3799
     41 H          60.5021   86.6800   17.0068 H       1  UNL1        0.2105
     42 C          62.9631   86.7012   17.8510 C.3     1  UNL1        0.1684
     43 O          63.0615   88.0967   17.3101 O.3     1  UNL1       -0.3794
     44 H          63.6105   88.0955   16.5104 H       1  UNL1        0.2105
@<TRIPOS>BOND
     1    31    32    1
     2    32    25    1
     3    25    26   ar
     4    26    27   ar
     5    27    28   ar
     6    28    19    1
     7    19    20   am
     8    20    21    2
     9    20    22   am
    10    22    13    1
    11    13    14   ar
    12    14    15   ar
    13    15    16   ar
    14    16     1    1
    15     1     2   ar
    16     2     3   ar
    17     3     4   ar
    18     4     5   ar
    19     5    33    1
    20    33    34   ar
    21    34    35   ar
    22    35    36   ar
    23    36    38    1
    24    38    39    1
    25    39    40    1
    26    39    42    1
    27    42    43    1
    28    36    37   ar
    29     5     6   ar
    30     6     7   ar
    31     7     8   ar
    32     8     9    1
    33     8    10   ar
    34    16    17   ar
    35    17    18   ar
    36    28    29   ar
    37    29    30   ar
    38    30    25   ar
    39    18    13   ar
    40    10     1   ar
    41    10     4   ar
    42    37    33   ar
    43    19    23    1
    44    22    24    1
    45    40    41    1
    46    43    44    1
    47     9    11    1
    48     9    12    1
@<TRIPOS>MOLECULE
*****
 44 48 0 0 0
SMALL
GASTEIGER

@<TRIPOS>ATOM
      1 C          60.9461   93.1518    1.5348 C.ar    1  UNL1        0.0096
      2 C          60.1392   93.7217    0.4061 C.ar    1  UNL1        0.0355
      3 S          61.0915   94.2932   -0.6021 S.2     1  UNL1       -0.0863
      4 C          62.4870   94.0766   -0.0964 C.ar    1  UNL1        0.0337
      5 C          63.8279   94.4305   -0.6679 C.ar    1  UNL1        0.0283
      6 C          65.0790   94.0791    0.0813 C.ar    1  UNL1        0.1008
      7 N          64.9892   93.3736    1.4020 N.ar    1  UNL1       -0.2296
      8 C          63.6482   93.0197    1.9735 C.ar    1  UNL1        0.1258
      9 N          63.5583   92.3143    3.2942 N.pl3   1  UNL1       -0.3426
     10 C          62.3972   93.3712    1.2243 C.ar    1  UNL1        0.0377
     11 H          64.3794   92.0836    3.7860 H       1  UNL1        0.1437
     12 H          62.6782   92.0820    3.6693 H       1  UNL1        0.1437
     13 C          59.3026   91.1378    5.2081 C.ar    1  UNL1        0.0516
     14 C          58.3936   91.9331    4.3186 C.ar    1  UNL1        0.0147
     15 C          58.9414   92.6045    3.0941 C.ar    1  UNL1        0.0013
     16 C          60.3982   92.4805    2.7592 C.ar    1  UNL1        0.0007
     17 C          61.3072   91.6852    3.6487 C.ar    1  UNL1        0.0013
     18 C          60.7594   91.0138    4.8732 C.ar    1  UNL1        0.0147
     19 N          59.0329   88.7787    8.3879 N.am    1  UNL1       -0.2681
     20 C          59.5807   89.4500    7.1635 C.2     1  UNL1        0.3082
     21 O          60.9546   89.1049    6.6703 O.2     1  UNL1       -0.2522
     22 N          58.7547   90.4664    6.4325 N.am    1  UNL1       -0.2681
     23 H          58.1311   89.0052    8.7116 H       1  UNL1        0.1564
     24 H          57.8529   90.6929    6.7562 H       1  UNL1        0.1564
     25 C          61.5110   85.7293   10.5813 C.ar    1  UNL1        0.1388
     26 C          61.2261   85.5529    9.1192 C.ar    1  UNL1        0.0382
     27 C          60.4001   86.5694    8.3881 C.ar    1  UNL1        0.0178
     28 C          59.8589   87.7622    9.1191 C.ar    1  UNL1        0.0518
     29 C          60.1438   87.9386   10.5812 C.ar    1  UNL1        0.0178
     30 C          60.9698   86.9221   11.3122 C.ar    1  UNL1        0.0382
     31 C          63.1317   85.1192   12.5180 C.3     1  UNL1        0.2525
     32 O          62.3370   84.7129   11.3124 O.3     1  UNL1       -0.4714
     33 C          63.9178   95.1360   -1.9886 C.ar    1  UNL1        0.0416
     34 C          63.5878   96.5770   -2.2428 C.ar    1  UNL1        0.1217
     35 N          63.8195   96.8559   -3.6983 N.ar    1  UNL1       -0.1676
     36 N          64.2927   95.5872   -4.3438 N.ar    1  UNL1       -0.2468
     37 C          64.3534   94.5242   -3.2872 C.ar    1  UNL1        0.0968
     38 C          64.6435   95.4122   -5.7916 C.3     1  UNL1        0.1591
     39 C          64.9936   94.0524   -6.3194 C.3     1  UNL1        0.1640
     40 O          66.4013   93.7510   -6.7407 O.3     1  UNL1       -0.3799
     41 H          66.4556   92.8349   -7.0548 H       1  UNL1        0.2105
     42 C          63.9359   92.9941   -6.4261 C.3     1  UNL1        0.1684
     43 O          64.2037   91.6116   -5.9097 O.3     1  UNL1       -0.3794
     44 H          64.9017   91.1975   -6.4410 H       1  UNL1        0.2105
@<TRIPOS>BOND
     1    31    32    1
     2    32    25    1
     3    25    26   ar
     4    26    27   ar
     5    27    28   ar
     6    28    19    1
     7    19    20   am
     8    20    21    2
     9    20    22   am
    10    22    13    1
    11    13    14   ar
    12    14    15   ar
    13    15    16   ar
    14    16     1    1
    15     1     2   ar
    16     2     3   ar
    17     3     4   ar
    18     4     5   ar
    19     5    33    1
    20    33    34   ar
    21    34    35   ar
    22    35    36   ar
    23    36    38    1
    24    38    39    1
    25    39    40    1
    26    39    42    1
    27    42    43    1
    28    36    37   ar
    29     5     6   ar
    30     6     7   ar
    31     7     8   ar
    32     8     9    1
    33     8    10   ar
    34    16    17   ar
    35    17    18   ar
    36    28    29   ar
    37    29    30   ar
    38    30    25   ar
    39    18    13   ar
    40    10     1   ar
    41    10     4   ar
    42    37    33   ar
    43    19    23    1
    44    22    24    1
    45    40    41    1
    46    43    44    1
    47     9    11    1
    48     9    12    1
@<TRIPOS>MOLECULE
*****
 44 48 0 0 0
SMALL
GASTEIGER

@<TRIPOS>ATOM
      1 C          60.4138   92.8431    2.1543 C.ar    1  UNL1        0.0096
      2 C          59.4150   93.5067    1.2532 C.ar    1  UNL1        0.0355
      3 S          60.1641   94.1436    0.1204 S.2     1  UNL1       -0.0863
      4 C          61.6259   93.8736    0.3214 C.ar    1  UNL1        0.0337
      5 C          62.8363   94.2557   -0.4778 C.ar    1  UNL1        0.0283
      6 C          64.2011   93.8342   -0.0199 C.ar    1  UNL1        0.1008
      7 N          64.3555   93.0304    1.2371 N.ar    1  UNL1       -0.2296
      8 C          63.1449   92.6483    2.0363 C.ar    1  UNL1        0.1258
      9 N          63.2992   91.8445    3.2934 N.pl3   1  UNL1       -0.3426
     10 C          61.7802   93.0699    1.5785 C.ar    1  UNL1        0.0377
     11 H          64.1950   91.5678    3.5939 H       1  UNL1        0.1437
     12 H          62.5048   91.5937    3.8179 H       1  UNL1        0.1437
     13 C          59.4757   90.5711    5.9237 C.ar    1  UNL1        0.0516
     14 C          60.8415   90.4760    5.3109 C.ar    1  UNL1        0.0147
     15 C          61.1542   91.2333    4.0544 C.ar    1  UNL1        0.0013
     16 C          60.1011   92.0858    3.4108 C.ar    1  UNL1        0.0007
     17 C          58.7353   92.1809    4.0236 C.ar    1  UNL1        0.0013
     18 C          58.4226   91.4235    5.2801 C.ar    1  UNL1        0.0147
     19 N          59.8984   88.8995    9.4981 N.am    1  UNL1       -0.2681
     20 C          60.2110   89.6569    8.2417 C.2     1  UNL1        0.3082
     21 O          61.5717   90.2574    8.0469 O.2     1  UNL1       -0.2522
     22 N          59.1630   89.8137    7.1801 N.am    1  UNL1       -0.2681
     23 H          59.0053   88.5054    9.6260 H       1  UNL1        0.1564
     24 H          58.2700   89.4195    7.3080 H       1  UNL1        0.1564
     25 C          63.0424   88.4291   12.6831 C.ar    1  UNL1        0.1388
     26 C          62.4104   89.7685   12.4452 C.ar    1  UNL1        0.0382
     27 C          61.3624   89.9253   11.3836 C.ar    1  UNL1        0.0178
     28 C          60.9464   88.7427   10.5598 C.ar    1  UNL1        0.0518
     29 C          61.5785   87.4033   10.7977 C.ar    1  UNL1        0.0178
     30 C          62.6264   87.2466   11.8594 C.ar    1  UNL1        0.0382
     31 C          63.9946   89.0630   15.0158 C.3     1  UNL1        0.2525
     32 O          64.0904   88.2723   13.7447 O.3     1  UNL1       -0.4714
     33 C          62.6820   95.0595   -1.7348 C.ar    1  UNL1        0.0416
     34 C          62.0929   96.4353   -1.8350 C.ar    1  UNL1        0.1217
     35 N          62.1365   96.8546   -3.2745 N.ar    1  UNL1       -0.1676
     36 N          62.7526   95.7380   -4.0641 N.ar    1  UNL1       -0.2468
     37 C          63.0898   94.6284   -3.1126 C.ar    1  UNL1        0.0968
     38 C          62.9899   95.7318   -5.5452 C.3     1  UNL1        0.1591
     39 C          64.2904   95.2245   -6.0943 C.3     1  UNL1        0.1640
     40 O          65.5227   96.0756   -6.0107 O.3     1  UNL1       -0.3799
     41 H          66.2701   95.6023   -6.4087 H       1  UNL1        0.2105
     42 C          64.3585   93.8662   -6.7270 C.3     1  UNL1        0.1684
     43 O          63.4728   92.7623   -6.2304 O.3     1  UNL1       -0.3794
     44 H          63.7229   92.5310   -5.3221 H       1  UNL1        0.2105
@<TRIPOS>BOND
     1    31    32    1
     2    32    25    1
     3    25    26   ar
     4    26    27   ar
     5    27    28   ar
     6    28    19    1
     7    19    20   am
     8    20    21    2
     9    20    22   am
    10    22    13    1
    11    13    14   ar
    12    14    15   ar
    13    15    16   ar
    14    16     1    1
    15     1     2   ar
    16     2     3   ar
    17     3     4   ar
    18     4     5   ar
    19     5    33    1
    20    33    34   ar
    21    34    35   ar
    22    35    36   ar
    23    36    38    1
    24    38    39    1
    25    39    40    1
    26    39    42    1
    27    42    43    1
    28    36    37   ar
    29     5     6   ar
    30     6     7   ar
    31     7     8   ar
    32     8     9    1
    33     8    10   ar
    34    16    17   ar
    35    17    18   ar
    36    28    29   ar
    37    29    30   ar
    38    30    25   ar
    39    18    13   ar
    40    10     1   ar
    41    10     4   ar
    42    37    33   ar
    43    19    23    1
    44    22    24    1
    45    40    41    1
    46    43    44    1
    47     9    11    1
    48     9    12    1
@<TRIPOS>MOLECULE
*****
 44 48 0 0 0
SMALL
GASTEIGER

@<TRIPOS>ATOM
      1 C          60.3757   92.9577    1.9617 C.ar    1  UNL1        0.0096
      2 C          59.4645   93.6492    0.9914 C.ar    1  UNL1        0.0355
      3 S          60.3091   94.2330   -0.1022 S.2     1  UNL1       -0.0863
      4 C          61.7422   93.9022    0.1923 C.ar    1  UNL1        0.0337
      5 C          63.0151   94.2169   -0.5362 C.ar    1  UNL1        0.0283
      6 C          64.3291   93.7435    0.0108 C.ar    1  UNL1        0.1008
      7 N          64.3703   92.9553    1.2863 N.ar    1  UNL1       -0.2296
      8 C          63.0974   92.6406    2.0149 C.ar    1  UNL1        0.1258
      9 N          63.1385   91.8524    3.2905 N.pl3   1  UNL1       -0.3426
     10 C          61.7834   93.1140    1.4679 C.ar    1  UNL1        0.0377
     11 H          64.0009   91.5416    3.6495 H       1  UNL1        0.1437
     12 H          62.3031   91.6458    3.7686 H       1  UNL1        0.1437
     13 C          59.1084   90.7938    5.6983 C.ar    1  UNL1        0.0516
     14 C          60.5533   90.8126    5.2960 C.ar    1  UNL1        0.0147
     15 C          60.9758   91.5339    4.0504 C.ar    1  UNL1        0.0013
     16 C          59.9533   92.2364    3.2072 C.ar    1  UNL1        0.0007
     17 C          58.5084   92.2175    3.6096 C.ar    1  UNL1        0.0013
     18 C          58.0859   91.4962    4.8551 C.ar    1  UNL1        0.0147
     19 N          59.1966   88.3761    8.8442 N.am    1  UNL1       -0.2681
     20 C          59.6190   89.0974    7.5987 C.2     1  UNL1        0.3082
     21 O          60.9742   88.8436    7.0080 O.2     1  UNL1       -0.2522
     22 N          58.6861   90.0725    6.9438 N.am    1  UNL1       -0.2681
     23 H          58.3071   88.5427    9.2319 H       1  UNL1        0.1564
     24 H          57.7966   90.2391    7.3315 H       1  UNL1        0.1564
     25 C          61.9953   85.4508   10.8089 C.ar    1  UNL1        0.1388
     26 C          61.4233   86.5891   11.6008 C.ar    1  UNL1        0.0382
     27 C          60.4904   87.5641   10.9459 C.ar    1  UNL1        0.0178
     28 C          60.1296   87.4010    9.4991 C.ar    1  UNL1        0.0518
     29 C          60.7016   86.2627    8.7072 C.ar    1  UNL1        0.0178
     30 C          61.6345   85.2877    9.3621 C.ar    1  UNL1        0.0382
     31 C          62.8059   84.1906   12.9313 C.3     1  UNL1        0.2525
     32 O          62.9282   84.4757   11.4638 O.3     1  UNL1       -0.4714
     33 C          62.9739   95.0051   -1.8118 C.ar    1  UNL1        0.0416
     34 C          63.0061   96.5004   -1.9257 C.ar    1  UNL1        0.1217
     35 N          62.9454   96.8559   -3.3817 N.ar    1  UNL1       -0.1676
     36 N          62.8758   95.5802   -4.1677 N.ar    1  UNL1       -0.2468
     37 C          62.8934   94.4363   -3.1975 C.ar    1  UNL1        0.0968
     38 C          62.8016   95.4680   -5.6617 C.3     1  UNL1        0.1591
     39 C          61.5493   94.9625   -6.3146 C.3     1  UNL1        0.1640
     40 O          61.6367   94.1135   -7.5481 O.3     1  UNL1       -0.3799
     41 H          60.7431   93.8735   -7.8394 H       1  UNL1        0.2105
     42 C          60.2096   95.3061   -5.7340 C.3     1  UNL1        0.1684
     43 O          59.6076   94.4362   -4.6707 O.3     1  UNL1       -0.3794
     44 H          59.4042   93.5640   -5.0433 H       1  UNL1        0.2105
@<TRIPOS>BOND
     1    31    32    1
     2    32    25    1
     3    25    26   ar
     4    26    27   ar
     5    27    28   ar
     6    28    19    1
     7    19    20   am
     8    20    21    2
     9    20    22   am
    10    22    13    1
    11    13    14   ar
    12    14    15   ar
    13    15    16   ar
    14    16     1    1
    15     1     2   ar
    16     2     3   ar
    17     3     4   ar
    18     4     5   ar
    19     5    33    1
    20    33    34   ar
    21    34    35   ar
    22    35    36   ar
    23    36    38    1
    24    38    39    1
    25    39    40    1
    26    39    42    1
    27    42    43    1
    28    36    37   ar
    29     5     6   ar
    30     6     7   ar
    31     7     8   ar
    32     8     9    1
    33     8    10   ar
    34    16    17   ar
    35    17    18   ar
    36    28    29   ar
    37    29    30   ar
    38    30    25   ar
    39    18    13   ar
    40    10     1   ar
    41    10     4   ar
    42    37    33   ar
    43    19    23    1
    44    22    24    1
    45    40    41    1
    46    43    44    1
    47     9    11    1
    48     9    12    1
