@<TRIPOS>MOLECULE
*****
 23 25 0 0 0
SMALL
GASTEIGER

@<TRIPOS>ATOM
      1 C          63.2845   84.1153   14.0170 C.3     1  UNL1        0.1883
      2 C          63.2182   84.3152   12.5318 C.ar    1  UNL1        0.0195
      3 C          64.0273   83.4406   11.6204 C.ar    1  UNL1        0.0002
      4 C          63.9609   83.6405   10.1353 C.ar    1  UNL1        0.0135
      5 C          63.0855   84.7150    9.5615 C.ar    1  UNL1        0.0850
      6 CL         63.0192   84.9148    8.0763 Cl      1  UNL1       -0.0799
      7 C          62.2765   85.5896   10.4728 C.ar    1  UNL1        0.1504
      8 F          61.4011   86.6640    9.8990 F       1  UNL1       -0.2033
      9 C          62.3428   85.3897   11.9580 C.ar    1  UNL1        0.0297
     10 O          64.3097   84.8513   14.8277 O.3     1  UNL1       -0.4748
     11 F          63.0649   90.3022   17.0044 F       1  UNL1       -0.2042
     12 C          63.3761   88.9394   16.4603 C.ar    1  UNL1        0.1403
     13 C          62.9870   87.7155   17.2352 C.ar    1  UNL1        0.0327
     14 C          63.2982   86.3528   16.6910 C.ar    1  UNL1        0.0392
     15 C          63.9985   86.2140   15.3719 C.ar    1  UNL1        0.1390
     16 C          64.3877   87.4379   14.5969 C.ar    1  UNL1        0.0392
     17 C          64.0765   88.8006   15.1411 C.ar    1  UNL1        0.0327
     18 C          62.3256   83.1795   14.6913 C.3     1  UNL1        0.0510
     19 C          62.1829   81.7695   14.1998 C.3     1  UNL1        0.0354
     20 C          61.0325   80.8290   13.9947 C.3     1  UNL1        0.0700
     21 N          61.9811   79.7754   13.5048 N.3     1  UNL1       -0.2974
     22 C          63.1316   80.7159   13.7100 C.3     1  UNL1        0.0700
     23 H          61.8346   79.5025   12.5330 H       1  UNL1        0.1232
@<TRIPOS>BOND
     1    11    12    1
     2    12    13   ar
     3    13    14   ar
     4    14    15   ar
     5    15    10    1
     6    10     1    1
     7     1    18    1
     8    18    19    1
     9    19    20    1
    10    20    21    1
    11    21    22    1
    12     1     2    1
    13     2     3   ar
    14     3     4   ar
    15     4     5   ar
    16     5     6    1
    17     5     7   ar
    18     7     8    1
    19     7     9   ar
    20    15    16   ar
    21    16    17   ar
    22    17    12   ar
    23    22    19    1
    24     9     2   ar
    25    21    23    1
@<TRIPOS>MOLECULE
*****
 23 25 0 0 0
SMALL
GASTEIGER

@<TRIPOS>ATOM
      1 C          62.0782   86.5779   10.6871 C.3     1  UNL1        0.1883
      2 C          62.6110   85.3103   11.2867 C.ar    1  UNL1        0.0195
      3 C          62.5655   85.1064   12.7721 C.ar    1  UNL1        0.0002
      4 C          63.0982   83.8389   13.3718 C.ar    1  UNL1        0.0135
      5 C          63.6766   82.7753   12.4861 C.ar    1  UNL1        0.0850
      6 CL         64.2093   81.5078   13.0858 Cl      1  UNL1       -0.0799
      7 C          63.7221   82.9793   11.0007 C.ar    1  UNL1        0.1504
      8 F          64.3004   81.9158   10.1150 F       1  UNL1       -0.2033
      9 C          63.1893   84.2468   10.4010 C.ar    1  UNL1        0.0297
     10 O          61.6842   87.7202   11.5757 O.3     1  UNL1       -0.4748
     11 F          64.9302   92.7663   11.5926 F       1  UNL1       -0.2042
     12 C          64.1187   91.5048   11.5884 C.ar    1  UNL1        0.1403
     13 C          64.1594   90.5829   12.7709 C.ar    1  UNL1        0.0327
     14 C          63.3479   89.3213   12.7667 C.ar    1  UNL1        0.0392
     15 C          62.4957   88.9817   11.5799 C.ar    1  UNL1        0.1390
     16 C          62.4550   89.9036   10.3974 C.ar    1  UNL1        0.0392
     17 C          63.2665   91.1651   10.4016 C.ar    1  UNL1        0.0327
     18 C          61.9396   86.7030    9.1987 C.3     1  UNL1        0.0510
     19 C          60.5772   86.7201    8.5712 C.3     1  UNL1        0.0354
     20 C          59.3385   87.5475    8.7475 C.3     1  UNL1        0.0700
     21 N          58.6506   86.7443    7.6838 N.3     1  UNL1       -0.2974
     22 C          59.8893   85.9169    7.5074 C.3     1  UNL1        0.0700
     23 H          58.3891   87.2836    6.8584 H       1  UNL1        0.1232
@<TRIPOS>BOND
     1    11    12    1
     2    12    13   ar
     3    13    14   ar
     4    14    15   ar
     5    15    10    1
     6    10     1    1
     7     1    18    1
     8    18    19    1
     9    19    20    1
    10    20    21    1
    11    21    22    1
    12     1     2    1
    13     2     3   ar
    14     3     4   ar
    15     4     5   ar
    16     5     6    1
    17     5     7   ar
    18     7     8    1
    19     7     9   ar
    20    15    16   ar
    21    16    17   ar
    22    17    12   ar
    23    22    19    1
    24     9     2   ar
    25    21    23    1
@<TRIPOS>MOLECULE
*****
 23 25 0 0 0
SMALL
GASTEIGER

@<TRIPOS>ATOM
      1 C          62.0867   86.4227   10.7249 C.3     1  UNL1        0.1883
      2 C          62.5995   85.1518   11.3348 C.ar    1  UNL1        0.0195
      3 C          63.2404   84.1091   10.4677 C.ar    1  UNL1        0.0002
      4 C          63.7533   82.8383   11.0775 C.ar    1  UNL1        0.0135
      5 C          63.6253   82.6101   12.5545 C.ar    1  UNL1        0.0850
      6 CL         64.1381   81.3393   13.1643 Cl      1  UNL1       -0.0799
      7 C          62.9844   83.6528   13.4217 C.ar    1  UNL1        0.1504
      8 F          62.8563   83.4247   14.8987 F       1  UNL1       -0.2033
      9 C          62.4715   84.9237   12.8118 C.ar    1  UNL1        0.0297
     10 O          61.6902   87.5705   11.6054 O.3     1  UNL1       -0.4748
     11 F          64.7872   92.7059   11.4167 F       1  UNL1       -0.2042
     12 C          64.0129   91.4220   11.4639 C.ar    1  UNL1        0.1403
     13 C          63.1468   91.0256   10.3053 C.ar    1  UNL1        0.0327
     14 C          62.3725   89.7417   10.3524 C.ar    1  UNL1        0.0392
     15 C          62.4644   88.8543   11.5583 C.ar    1  UNL1        0.1390
     16 C          63.3306   89.2508   12.7169 C.ar    1  UNL1        0.0392
     17 C          64.1048   90.5347   12.6697 C.ar    1  UNL1        0.0327
     18 C          61.9704   86.5457    9.2345 C.3     1  UNL1        0.0510
     19 C          60.6172   86.6159    8.5911 C.3     1  UNL1        0.0354
     20 C          59.9344   85.8834    7.4743 C.3     1  UNL1        0.0700
     21 N          58.7035   86.7152    7.6812 N.3     1  UNL1       -0.2974
     22 C          59.3862   87.4477    8.7980 C.3     1  UNL1        0.0700
     23 H          57.8844   86.1816    7.9726 H       1  UNL1        0.1232
@<TRIPOS>BOND
     1    11    12    1
     2    12    13   ar
     3    13    14   ar
     4    14    15   ar
     5    15    10    1
     6    10     1    1
     7     1    18    1
     8    18    19    1
     9    19    20    1
    10    20    21    1
    11    21    22    1
    12     1     2    1
    13     2     3   ar
    14     3     4   ar
    15     4     5   ar
    16     5     6    1
    17     5     7   ar
    18     7     8    1
    19     7     9   ar
    20    15    16   ar
    21    16    17   ar
    22    17    12   ar
    23    22    19    1
    24     9     2   ar
    25    21    23    1
@<TRIPOS>MOLECULE
*****
 23 25 0 0 0
SMALL
GASTEIGER

@<TRIPOS>ATOM
      1 C          65.9337   92.2063   12.9108 C.3     1  UNL1        0.1883
      2 C          66.3827   93.1036   11.7956 C.ar    1  UNL1        0.0195
      3 C          66.1118   94.5773   11.8635 C.ar    1  UNL1        0.0002
      4 C          66.5607   95.4746   10.7484 C.ar    1  UNL1        0.0135
      5 C          67.2805   94.8980    9.5654 C.ar    1  UNL1        0.0850
      6 CL         67.7294   95.7952    8.4503 Cl      1  UNL1       -0.0799
      7 C          67.5513   93.4242    9.4975 C.ar    1  UNL1        0.1504
      8 F          68.2711   92.8476    8.3145 F       1  UNL1       -0.2033
      9 C          67.1024   92.5270   10.6126 C.ar    1  UNL1        0.0297
     10 O          64.4731   91.9269   13.1068 O.3     1  UNL1       -0.4748
     11 F          61.6665   87.9964    9.5468 F       1  UNL1       -0.2042
     12 C          62.3681   88.9790   10.4368 C.ar    1  UNL1        0.1403
     13 C          62.6887   90.3539    9.9301 C.ar    1  UNL1        0.0327
     14 C          63.3903   91.3366   10.8201 C.ar    1  UNL1        0.0392
     15 C          63.7715   90.9443   12.2168 C.ar    1  UNL1        0.1390
     16 C          63.4509   89.5693   12.7235 C.ar    1  UNL1        0.0392
     17 C          62.7493   88.5867   11.8335 C.ar    1  UNL1        0.0327
     18 C          66.9455   91.5886   13.8299 C.3     1  UNL1        0.0510
     19 C          67.7797   92.4601   14.7213 C.3     1  UNL1        0.0354
     20 C          67.4883   93.5048   15.7576 C.3     1  UNL1        0.0700
     21 N          68.9595   93.6926   15.9820 N.3     1  UNL1       -0.2974
     22 C          69.2509   92.6480   14.9457 C.3     1  UNL1        0.0700
     23 H          69.2723   93.4462   16.9210 H       1  UNL1        0.1232
@<TRIPOS>BOND
     1    11    12    1
     2    12    13   ar
     3    13    14   ar
     4    14    15   ar
     5    15    10    1
     6    10     1    1
     7     1    18    1
     8    18    19    1
     9    19    20    1
    10    20    21    1
    11    21    22    1
    12     1     2    1
    13     2     3   ar
    14     3     4   ar
    15     4     5   ar
    16     5     6    1
    17     5     7   ar
    18     7     8    1
    19     7     9   ar
    20    15    16   ar
    21    16    17   ar
    22    17    12   ar
    23    22    19    1
    24     9     2   ar
    25    21    23    1
@<TRIPOS>MOLECULE
*****
 23 25 0 0 0
SMALL
GASTEIGER

@<TRIPOS>ATOM
      1 C          61.6865   88.4523   10.7125 C.3     1  UNL1        0.1883
      2 C          62.6368   89.1890   11.6095 C.ar    1  UNL1        0.0195
      3 C          62.9998   90.6132   11.3095 C.ar    1  UNL1        0.0002
      4 C          63.9499   91.3499   12.2063 C.ar    1  UNL1        0.0135
      5 C          64.5372   90.6624   13.4033 C.ar    1  UNL1        0.0850
      6 CL         65.4873   91.3991   14.3001 Cl      1  UNL1       -0.0799
      7 C          64.1742   89.2383   13.7033 C.ar    1  UNL1        0.1504
      8 F          64.7614   88.5508   14.9001 F       1  UNL1       -0.2033
      9 C          63.2240   88.5016   12.8063 C.ar    1  UNL1        0.0297
     10 O          61.2071   87.0824   11.0913 O.3     1  UNL1       -0.4748
     11 F          64.6502   82.2911   10.0010 F       1  UNL1       -0.2042
     12 C          63.7894   83.4890   10.2736 C.ar    1  UNL1        0.1403
     13 C          63.4137   84.4130    9.1534 C.ar    1  UNL1        0.0327
     14 C          62.5529   85.6108    9.4260 C.ar    1  UNL1        0.0392
     15 C          62.0679   85.8846   10.8187 C.ar    1  UNL1        0.1390
     16 C          62.4437   84.9606   11.9389 C.ar    1  UNL1        0.0392
     17 C          63.3044   83.7627   11.6663 C.ar    1  UNL1        0.0327
     18 C          61.2158   89.0856    9.4369 C.3     1  UNL1        0.0510
     19 C          60.1399   88.4270    8.6251 C.3     1  UNL1        0.0354
     20 C          59.4111   87.1178    8.6931 C.3     1  UNL1        0.0700
     21 N          58.6185   87.4958    7.4770 N.3     1  UNL1       -0.2974
     22 C          59.3473   88.8051    7.4089 C.3     1  UNL1        0.0700
     23 H          57.6163   87.5853    7.6443 H       1  UNL1        0.1232
@<TRIPOS>BOND
     1    11    12    1
     2    12    13   ar
     3    13    14   ar
     4    14    15   ar
     5    15    10    1
     6    10     1    1
     7     1    18    1
     8    18    19    1
     9    19    20    1
    10    20    21    1
    11    21    22    1
    12     1     2    1
    13     2     3   ar
    14     3     4   ar
    15     4     5   ar
    16     5     6    1
    17     5     7   ar
    18     7     8    1
    19     7     9   ar
    20    15    16   ar
    21    16    17   ar
    22    17    12   ar
    23    22    19    1
    24     9     2   ar
    25    21    23    1
@<TRIPOS>MOLECULE
*****
 23 25 0 0 0
SMALL
GASTEIGER

@<TRIPOS>ATOM
      1 C          62.0269   87.2604   10.7001 C.3     1  UNL1        0.1883
      2 C          62.6831   88.4799   11.2766 C.ar    1  UNL1        0.0195
      3 C          62.6802   89.7676   10.5074 C.ar    1  UNL1        0.0002
      4 C          63.3362   90.9871   11.0839 C.ar    1  UNL1        0.0135
      5 C          63.9953   90.9189   12.4297 C.ar    1  UNL1        0.0850
      6 CL         64.6513   92.1384   13.0062 Cl      1  UNL1       -0.0799
      7 C          63.9981   89.6312   13.1989 C.ar    1  UNL1        0.1504
      8 F          64.6571   89.5629   14.5447 F       1  UNL1       -0.2033
      9 C          63.3420   88.4116   12.6224 C.ar    1  UNL1        0.0297
     10 O          61.5328   86.1741   11.6088 O.3     1  UNL1       -0.4748
     11 F          65.0049   81.4193   12.7648 F       1  UNL1       -0.2042
     12 C          64.1369   82.6080   12.4758 C.ar    1  UNL1        0.1403
     13 C          63.5210   83.3792   13.6053 C.ar    1  UNL1        0.0327
     14 C          62.6529   84.5679   13.3162 C.ar    1  UNL1        0.0392
     15 C          62.4009   84.9854   11.8978 C.ar    1  UNL1        0.1390
     16 C          63.0168   84.2141   10.7683 C.ar    1  UNL1        0.0392
     17 C          63.8848   83.0254   11.0573 C.ar    1  UNL1        0.0327
     18 C          61.8650   87.1272    9.2148 C.3     1  UNL1        0.0510
     19 C          60.4989   86.9441    8.6227 C.3     1  UNL1        0.0354
     20 C          59.8945   86.0067    7.6198 C.3     1  UNL1        0.0700
     21 N          58.5670   86.6852    7.7855 N.3     1  UNL1       -0.2974
     22 C          59.1715   87.6227    8.7885 C.3     1  UNL1        0.0700
     23 H          57.8364   86.0835    8.1655 H       1  UNL1        0.1232
@<TRIPOS>BOND
     1    11    12    1
     2    12    13   ar
     3    13    14   ar
     4    14    15   ar
     5    15    10    1
     6    10     1    1
     7     1    18    1
     8    18    19    1
     9    19    20    1
    10    20    21    1
    11    21    22    1
    12     1     2    1
    13     2     3   ar
    14     3     4   ar
    15     4     5   ar
    16     5     6    1
    17     5     7   ar
    18     7     8    1
    19     7     9   ar
    20    15    16   ar
    21    16    17   ar
    22    17    12   ar
    23    22    19    1
    24     9     2   ar
    25    21    23    1
@<TRIPOS>MOLECULE
*****
 23 25 0 0 0
SMALL
GASTEIGER

@<TRIPOS>ATOM
      1 C          61.5153   88.8196   10.5901 C.3     1  UNL1        0.1883
      2 C          62.5647   89.6325   11.2889 C.ar    1  UNL1        0.0195
      3 C          63.0294   89.2382   12.6595 C.ar    1  UNL1        0.0002
      4 C          64.0787   90.0510   13.3583 C.ar    1  UNL1        0.0135
      5 C          64.6634   91.2580   12.6865 C.ar    1  UNL1        0.0850
      6 CL         65.7127   92.0707   13.3853 Cl      1  UNL1       -0.0799
      7 C          64.1987   91.6522   11.3158 C.ar    1  UNL1        0.1504
      8 F          64.7833   92.8591   10.6440 F       1  UNL1       -0.2033
      9 C          63.1493   90.8394   10.6170 C.ar    1  UNL1        0.0297
     10 O          61.1313   87.4717   11.1245 O.3     1  UNL1       -0.4748
     11 F          64.4907   82.6683    9.8435 F       1  UNL1       -0.2042
     12 C          63.6509   83.8691   10.1638 C.ar    1  UNL1        0.1403
     13 C          63.2080   84.1199   11.5747 C.ar    1  UNL1        0.0327
     14 C          62.3681   85.3208   11.8950 C.ar    1  UNL1        0.0392
     15 C          61.9712   86.2709   10.8043 C.ar    1  UNL1        0.1390
     16 C          62.4141   86.0201    9.3933 C.ar    1  UNL1        0.0392
     17 C          63.2539   84.8192    9.0730 C.ar    1  UNL1        0.0327
     18 C          60.8500   89.3548    9.3568 C.3     1  UNL1        0.0510
     19 C          59.9059   88.4877    8.5777 C.3     1  UNL1        0.0354
     20 C          59.2748   88.5608    7.2188 C.3     1  UNL1        0.0700
     21 N          58.5708   87.2615    7.4759 N.3     1  UNL1       -0.2974
     22 C          59.2019   87.1884    8.8347 C.3     1  UNL1        0.0700
     23 H          58.8468   86.5069    6.8474 H       1  UNL1        0.1232
@<TRIPOS>BOND
     1    11    12    1
     2    12    13   ar
     3    13    14   ar
     4    14    15   ar
     5    15    10    1
     6    10     1    1
     7     1    18    1
     8    18    19    1
     9    19    20    1
    10    20    21    1
    11    21    22    1
    12     1     2    1
    13     2     3   ar
    14     3     4   ar
    15     4     5   ar
    16     5     6    1
    17     5     7   ar
    18     7     8    1
    19     7     9   ar
    20    15    16   ar
    21    16    17   ar
    22    17    12   ar
    23    22    19    1
    24     9     2   ar
    25    21    23    1
@<TRIPOS>MOLECULE
*****
 23 25 0 0 0
SMALL
GASTEIGER

@<TRIPOS>ATOM
      1 C          63.1020   84.0470   11.7396 C.3     1  UNL1        0.1883
      2 C          62.4316   85.1277   10.9440 C.ar    1  UNL1        0.0195
      3 C          62.7198   85.2687    9.4787 C.ar    1  UNL1        0.0002
      4 C          62.0496   86.3493    8.6831 C.ar    1  UNL1        0.0135
      5 C          61.0911   87.2890    9.3528 C.ar    1  UNL1        0.0850
      6 CL         60.4208   88.3696    8.5572 Cl      1  UNL1       -0.0799
      7 C          60.8029   87.1480   10.8181 C.ar    1  UNL1        0.1504
      8 F          59.8444   88.0875   11.4877 F       1  UNL1       -0.2033
      9 C          61.4732   86.0673   11.6137 C.ar    1  UNL1        0.0297
     10 O          64.1732   84.3988   12.7289 O.3     1  UNL1       -0.4748
     11 F          62.6878   86.6934   18.0701 F       1  UNL1       -0.2042
     12 C          63.0591   86.1198   16.7348 C.ar    1  UNL1        0.1403
     13 C          64.0471   86.8335   15.8604 C.ar    1  UNL1        0.0327
     14 C          64.4184   86.2598   14.5251 C.ar    1  UNL1        0.0392
     15 C          63.8018   84.9724   14.0642 C.ar    1  UNL1        0.1390
     16 C          62.8139   84.2587   14.9386 C.ar    1  UNL1        0.0392
     17 C          62.4426   84.8324   16.2739 C.ar    1  UNL1        0.0327
     18 C          62.7010   82.6147   11.5458 C.3     1  UNL1        0.0510
     19 C          62.7267   81.6650   12.7067 C.3     1  UNL1        0.0354
     20 C          61.6845   80.9802   13.5402 C.3     1  UNL1        0.0700
     21 N          62.7632   80.3221   14.3484 N.3     1  UNL1       -0.2974
     22 C          63.8055   81.0069   13.5150 C.3     1  UNL1        0.0700
     23 H          62.7752   79.3046   14.2768 H       1  UNL1        0.1232
@<TRIPOS>BOND
     1    11    12    1
     2    12    13   ar
     3    13    14   ar
     4    14    15   ar
     5    15    10    1
     6    10     1    1
     7     1    18    1
     8    18    19    1
     9    19    20    1
    10    20    21    1
    11    21    22    1
    12     1     2    1
    13     2     3   ar
    14     3     4   ar
    15     4     5   ar
    16     5     6    1
    17     5     7   ar
    18     7     8    1
    19     7     9   ar
    20    15    16   ar
    21    16    17   ar
    22    17    12   ar
    23    22    19    1
    24     9     2   ar
    25    21    23    1
@<TRIPOS>MOLECULE
*****
 23 25 0 0 0
SMALL
GASTEIGER

@<TRIPOS>ATOM
      1 C          66.0640   92.1366   13.0168 C.3     1  UNL1        0.1883
      2 C          66.4655   93.0136   11.8679 C.ar    1  UNL1        0.0195
      3 C          66.1439   94.4784   11.8944 C.ar    1  UNL1        0.0002
      4 C          66.5453   95.3554   10.7456 C.ar    1  UNL1        0.0135
      5 C          67.2684   94.7674    9.5702 C.ar    1  UNL1        0.0850
      6 CL         67.6698   95.6444    8.4214 Cl      1  UNL1       -0.0799
      7 C          67.5900   93.3026    9.5436 C.ar    1  UNL1        0.1504
      8 F          68.3130   92.7146    8.3683 F       1  UNL1       -0.2033
      9 C          67.1885   92.4256   10.6925 C.ar    1  UNL1        0.0297
     10 O          64.6170   91.8134   13.2437 O.3     1  UNL1       -0.4748
     11 F          63.0608   87.7746   17.3990 F       1  UNL1       -0.2042
     12 C          63.4499   88.7843   16.3601 C.ar    1  UNL1        0.1403
     13 C          63.8665   88.3308   14.9924 C.ar    1  UNL1        0.0327
     14 C          64.2555   89.3405   13.9536 C.ar    1  UNL1        0.0392
     15 C          64.2280   90.8037   14.2825 C.ar    1  UNL1        0.1390
     16 C          63.8113   91.2572   15.6502 C.ar    1  UNL1        0.0392
     17 C          63.4223   90.2475   16.6890 C.ar    1  UNL1        0.0327
     18 C          67.1097   91.5829   13.9387 C.3     1  UNL1        0.0510
     19 C          67.9044   92.5073   14.8128 C.3     1  UNL1        0.0354
     20 C          67.5714   93.4937   15.8927 C.3     1  UNL1        0.0700
     21 N          69.0283   93.8146   16.0489 N.3     1  UNL1       -0.2974
     22 C          69.3613   92.8282   14.9691 C.3     1  UNL1        0.0700
     23 H          69.4115   93.5759   16.9636 H       1  UNL1        0.1232
@<TRIPOS>BOND
     1    11    12    1
     2    12    13   ar
     3    13    14   ar
     4    14    15   ar
     5    15    10    1
     6    10     1    1
     7     1    18    1
     8    18    19    1
     9    19    20    1
    10    20    21    1
    11    21    22    1
    12     1     2    1
    13     2     3   ar
    14     3     4   ar
    15     4     5   ar
    16     5     6    1
    17     5     7   ar
    18     7     8    1
    19     7     9   ar
    20    15    16   ar
    21    16    17   ar
    22    17    12   ar
    23    22    19    1
    24     9     2   ar
    25    21    23    1
