@<TRIPOS>MOLECULE
*****
 36 40 0 0 0
SMALL
GASTEIGER

@<TRIPOS>ATOM
      1 C          62.5485   88.1214   11.1532 C.ar    1  UNL1        0.0842
      2 N          61.8984   88.6928    9.9281 N.ar    1  UNL1       -0.2437
      3 C          61.8926   90.1761    9.7048 C.ar    1  UNL1        0.0988
      4 C          62.5369   91.0879   10.7066 C.ar    1  UNL1        0.0207
      5 C          63.1870   90.5164   11.9316 C.ar    1  UNL1        0.0043
      6 C          63.8313   91.4282   12.9333 C.ar    1  UNL1        0.0203
      7 C          64.4815   90.8568   14.1584 C.ar    1  UNL1        0.1252
      8 C          64.4873   89.3735   14.3817 C.ar    1  UNL1        0.0202
      9 C          63.8430   88.4617   13.3800 C.ar    1  UNL1        0.0029
     10 C          63.1929   89.0332   12.1549 C.ar    1  UNL1        0.0179
     11 C          62.4255   85.7035   10.2103 C.ar    1  UNL1        0.1401
     12 C          62.4313   84.2203   10.4336 C.ar    1  UNL1        0.0378
     13 C          62.5661   83.6715   11.8231 C.ar    1  UNL1        0.0137
     14 C          62.6950   84.6060   12.9893 C.ar    1  UNL1        0.0579
     15 CL         62.8298   84.0573   14.3788 Cl      1  UNL1       -0.0822
     16 C          62.6891   86.0893   12.7660 C.ar    1  UNL1        0.0159
     17 C          62.5544   86.6380   11.3765 C.ar    1  UNL1        0.0524
     18 C          62.5719   82.1882   12.0464 C.ar    1  UNL1        0.0031
     19 C          62.2813   81.6339   13.4095 C.ar    1  UNL1        0.0002
     20 C          62.2872   80.1506   13.6329 C.ar    1  UNL1        0.0023
     21 C          62.5836   79.2217   12.4930 C.ar    1  UNL1        0.0296
     22 C          62.8742   79.7761   11.1298 C.ar    1  UNL1        0.1401
     23 F          63.1706   78.8472    9.9899 F       1  UNL1       -0.2042
     24 C          62.8683   81.2593   10.9065 C.ar    1  UNL1        0.0297
     25 C          61.0435   85.9917    8.0292 C.3     1  UNL1        0.2525
     26 O          62.2907   86.2523    8.8207 O.3     1  UNL1       -0.4714
     27 S          65.1258   91.7686   15.1601 S.O2    1  UNL1        0.0748
     28 O          63.9754   91.5512   16.0979 O.2     1  UNL1       -0.1499
     29 O          66.2761   91.9860   14.2223 O.2     1  UNL1       -0.1499
     30 N          65.7701   92.6804   16.1618 N.pl3   1  UNL1       -0.1962
     31 H          65.2243   93.1079   16.8608 H       1  UNL1        0.1754
     32 C          67.2460   92.9408   16.0986 C.ar    1  UNL1        0.1893
     33 C          68.3303   91.9328   16.3401 C.ar    1  UNL1        0.0823
     34 C          69.6511   92.6239   16.1735 C.ar    1  UNL1        0.2152
     35 O          69.3832   94.0591   15.8290 O.2     1  UNL1       -0.3489
     36 N          67.8967   94.2548   15.7827 N.ar    1  UNL1       -0.0605
@<TRIPOS>BOND
     1    25    26    1
     2    26    11    1
     3    11    12   ar
     4    12    13   ar
     5    13    18    1
     6    18    19   ar
     7    19    20   ar
     8    20    21   ar
     9    21    22   ar
    10    22    23    1
    11    22    24   ar
    12    13    14   ar
    13    14    15    1
    14    14    16   ar
    15    16    17   ar
    16    17     1    1
    17     1     2   ar
    18     2     3   ar
    19     3     4   ar
    20     4     5   ar
    21     5     6   ar
    22     6     7   ar
    23     7    27    1
    24    27    28    2
    25    27    29    2
    26    27    30    1
    27    30    32    1
    28    32    33   ar
    29    33    34   ar
    30    34    35   ar
    31    35    36   ar
    32     7     8   ar
    33     8     9   ar
    34     9    10   ar
    35    17    11   ar
    36    10     1   ar
    37    24    18   ar
    38    10     5   ar
    39    36    32   ar
    40    30    31    1
@<TRIPOS>MOLECULE
*****
 36 40 0 0 0
SMALL
GASTEIGER

@<TRIPOS>ATOM
      1 C          62.4245   89.8386   11.9729 C.ar    1  UNL1        0.0842
      2 N          61.2939   90.6355   11.3928 N.ar    1  UNL1       -0.2437
      3 C          60.1687   89.9377   10.6879 C.ar    1  UNL1        0.0988
      4 C          60.1740   88.4429   10.5633 C.ar    1  UNL1        0.0207
      5 C          61.3046   87.6459   11.1435 C.ar    1  UNL1        0.0043
      6 C          61.3100   86.1511   11.0189 C.ar    1  UNL1        0.0203
      7 C          62.4405   85.3542   11.5991 C.ar    1  UNL1        0.1252
      8 C          63.5658   86.0521   12.3039 C.ar    1  UNL1        0.0202
      9 C          63.5605   87.5469   12.4285 C.ar    1  UNL1        0.0029
     10 C          62.4298   88.3438   11.8483 C.ar    1  UNL1        0.0179
     11 C          63.6719   90.4444   14.1700 C.ar    1  UNL1        0.1401
     12 C          64.7972   91.1422   14.8748 C.ar    1  UNL1        0.0378
     13 C          65.8003   91.9321   14.0875 C.ar    1  UNL1        0.0137
     14 C          65.6782   92.0242   12.5953 C.ar    1  UNL1        0.0579
     15 CL         66.6812   92.8140   11.8080 Cl      1  UNL1       -0.0822
     16 C          64.5529   91.3263   11.8905 C.ar    1  UNL1        0.0159
     17 C          63.5498   90.5365   12.6778 C.ar    1  UNL1        0.0524
     18 C          66.9256   92.6299   14.7924 C.ar    1  UNL1        0.0031
     19 C          67.0935   94.1138   14.6512 C.ar    1  UNL1        0.0002
     20 C          68.2188   94.8117   15.3561 C.ar    1  UNL1        0.0023
     21 C          69.1761   94.0256   16.2021 C.ar    1  UNL1        0.0296
     22 C          69.0081   92.5417   16.3432 C.ar    1  UNL1        0.1401
     23 F          69.9654   91.7557   17.1892 F       1  UNL1       -0.2042
     24 C          67.8829   91.8439   15.6384 C.ar    1  UNL1        0.0297
     25 C          62.9722   89.2535   16.3705 C.3     1  UNL1        0.2525
     26 O          62.6688   89.6545   14.9573 O.3     1  UNL1       -0.4714
     27 S          62.4459   83.8594   11.4744 S.O2    1  UNL1        0.0748
     28 O          62.8393   83.9810   10.0321 O.2     1  UNL1       -0.1499
     29 O          62.0525   83.7377   12.9168 O.2     1  UNL1       -0.1499
     30 N          62.4512   82.3646   11.3498 N.pl3   1  UNL1       -0.1962
     31 H          62.2359   81.9418   10.4872 H       1  UNL1        0.1754
     32 C          62.7846   81.5140   12.5395 C.ar    1  UNL1        0.1893
     33 C          61.8610   80.5463   13.2182 C.ar    1  UNL1        0.0823
     34 C          62.6057   79.9160   14.3575 C.ar    1  UNL1        0.2152
     35 O          63.9896   80.4942   14.3831 O.2     1  UNL1       -0.3489
     36 N          64.1002   81.4818   13.2595 N.ar    1  UNL1       -0.0605
@<TRIPOS>BOND
     1    25    26    1
     2    26    11    1
     3    11    12   ar
     4    12    13   ar
     5    13    18    1
     6    18    19   ar
     7    19    20   ar
     8    20    21   ar
     9    21    22   ar
    10    22    23    1
    11    22    24   ar
    12    13    14   ar
    13    14    15    1
    14    14    16   ar
    15    16    17   ar
    16    17     1    1
    17     1     2   ar
    18     2     3   ar
    19     3     4   ar
    20     4     5   ar
    21     5     6   ar
    22     6     7   ar
    23     7    27    1
    24    27    28    2
    25    27    29    2
    26    27    30    1
    27    30    32    1
    28    32    33   ar
    29    33    34   ar
    30    34    35   ar
    31    35    36   ar
    32     7     8   ar
    33     8     9   ar
    34     9    10   ar
    35    17    11   ar
    36    10     1   ar
    37    24    18   ar
    38    10     5   ar
    39    36    32   ar
    40    30    31    1
@<TRIPOS>MOLECULE
*****
 36 40 0 0 0
SMALL
GASTEIGER

@<TRIPOS>ATOM
      1 C          61.4782   93.4408    0.6766 C.ar    1  UNL1        0.0842
      2 N          62.9650   93.5127    0.4917 N.ar    1  UNL1       -0.2437
      3 C          63.8790   92.9436    1.5361 C.ar    1  UNL1        0.0988
      4 C          63.3062   92.3026    2.7653 C.ar    1  UNL1        0.0207
      5 C          61.8194   92.2307    2.9502 C.ar    1  UNL1        0.0043
      6 C          61.2466   91.5897    4.1795 C.ar    1  UNL1        0.0203
      7 C          59.7598   91.5178    4.3643 C.ar    1  UNL1        0.1252
      8 C          58.8457   92.0869    3.3200 C.ar    1  UNL1        0.0202
      9 C          59.4185   92.7279    2.0907 C.ar    1  UNL1        0.0029
     10 C          60.9054   92.7998    1.9059 C.ar    1  UNL1        0.0179
     11 C          60.2337   95.4730   -0.3584 C.ar    1  UNL1        0.1401
     12 C          59.3197   96.0421   -1.4027 C.ar    1  UNL1        0.0378
     13 C          58.7360   95.1481   -2.4564 C.ar    1  UNL1        0.0137
     14 C          59.0665   93.6850   -2.4657 C.ar    1  UNL1        0.0579
     15 CL         58.4829   92.7910   -3.5193 Cl      1  UNL1       -0.0822
     16 C          59.9805   93.1159   -1.4214 C.ar    1  UNL1        0.0159
     17 C          60.5641   94.0099   -0.3678 C.ar    1  UNL1        0.0524
     18 C          57.8220   95.7172   -3.5007 C.ar    1  UNL1        0.0031
     19 C          58.3912   96.2809   -4.7689 C.ar    1  UNL1        0.0002
     20 C          57.4771   96.8501   -5.8133 C.ar    1  UNL1        0.0023
     21 C          55.9939   96.8555   -5.5894 C.ar    1  UNL1        0.0296
     22 C          55.4248   96.2918   -4.3212 C.ar    1  UNL1        0.1401
     23 F          53.9416   96.2972   -4.0973 F       1  UNL1       -0.2042
     24 C          56.3388   95.7226   -3.2769 C.ar    1  UNL1        0.0297
     25 C          60.1509   96.4825    2.0341 C.3     1  UNL1        0.2525
     26 O          60.8173   96.3670    0.6952 O.3     1  UNL1       -0.4714
     27 S          59.1870   90.8768    5.5936 S.O2    1  UNL1        0.0748
     28 O          57.9036   91.6249    5.3857 O.2     1  UNL1       -0.1499
     29 O          60.4704   90.1287    5.8015 O.2     1  UNL1       -0.1499
     30 N          58.6142   90.2358    6.8228 N.pl3   1  UNL1       -0.1962
     31 H          57.7405   90.5289    7.1692 H       1  UNL1        0.1754
     32 C          59.3727   89.1483    7.5244 C.ar    1  UNL1        0.1893
     33 C          59.2343   87.6755    7.2761 C.ar    1  UNL1        0.0823
     34 C          60.1788   86.9596    8.1956 C.ar    1  UNL1        0.2152
     35 O          60.9010   87.9901    9.0122 O.2     1  UNL1       -0.3489
     36 N          60.4028   89.3427    8.5973 N.ar    1  UNL1       -0.0605
@<TRIPOS>BOND
     1    25    26    1
     2    26    11    1
     3    11    12   ar
     4    12    13   ar
     5    13    18    1
     6    18    19   ar
     7    19    20   ar
     8    20    21   ar
     9    21    22   ar
    10    22    23    1
    11    22    24   ar
    12    13    14   ar
    13    14    15    1
    14    14    16   ar
    15    16    17   ar
    16    17     1    1
    17     1     2   ar
    18     2     3   ar
    19     3     4   ar
    20     4     5   ar
    21     5     6   ar
    22     6     7   ar
    23     7    27    1
    24    27    28    2
    25    27    29    2
    26    27    30    1
    27    30    32    1
    28    32    33   ar
    29    33    34   ar
    30    34    35   ar
    31    35    36   ar
    32     7     8   ar
    33     8     9   ar
    34     9    10   ar
    35    17    11   ar
    36    10     1   ar
    37    24    18   ar
    38    10     5   ar
    39    36    32   ar
    40    30    31    1
@<TRIPOS>MOLECULE
*****
 36 40 0 0 0
SMALL
GASTEIGER

@<TRIPOS>ATOM
      1 C          61.6073   87.8208   10.6162 C.ar    1  UNL1        0.0842
      2 N          60.4753   87.9979    9.6481 N.ar    1  UNL1       -0.2437
      3 C          60.1833   89.3532    9.0756 C.ar    1  UNL1        0.0988
      4 C          61.0232   90.5314    9.4712 C.ar    1  UNL1        0.0207
      5 C          62.1551   90.3543   10.4393 C.ar    1  UNL1        0.0043
      6 C          62.9950   91.5325   10.8349 C.ar    1  UNL1        0.0203
      7 C          64.1270   91.3553   11.8030 C.ar    1  UNL1        0.1252
      8 C          64.4191   90.0000   12.3755 C.ar    1  UNL1        0.0202
      9 C          63.5792   88.8218   11.9799 C.ar    1  UNL1        0.0029
     10 C          62.4472   88.9990   11.0118 C.ar    1  UNL1        0.0179
     11 C          62.1146   85.2957   10.2748 C.ar    1  UNL1        0.1401
     12 C          62.4067   83.9404   10.8473 C.ar    1  UNL1        0.0378
     13 C          62.4836   83.7548   12.3338 C.ar    1  UNL1        0.0137
     14 C          62.2684   84.9246   13.2478 C.ar    1  UNL1        0.0579
     15 CL         62.3453   84.7390   14.7343 Cl      1  UNL1       -0.0822
     16 C          61.9763   86.2799   12.6753 C.ar    1  UNL1        0.0159
     17 C          61.8994   86.4655   11.1888 C.ar    1  UNL1        0.0524
     18 C          62.7757   82.3995   12.9063 C.ar    1  UNL1        0.0031
     19 C          64.1868   82.0136   13.2376 C.ar    1  UNL1        0.0002
     20 C          64.4790   80.6582   13.8102 C.ar    1  UNL1        0.0023
     21 C          63.3600   79.6888   14.0513 C.ar    1  UNL1        0.0296
     22 C          61.9488   80.0748   13.7200 C.ar    1  UNL1        0.1401
     23 F          60.8298   79.1055   13.9612 F       1  UNL1       -0.2042
     24 C          61.6567   81.4301   13.1475 C.ar    1  UNL1        0.0297
     25 C          63.0868   84.8782    7.9019 C.3     1  UNL1        0.2525
     26 O          62.0377   85.4813    8.7883 O.3     1  UNL1       -0.4714
     27 S          64.9669   92.5335   12.1985 S.O2    1  UNL1        0.0748
     28 O          64.8849   92.1096   13.6351 O.2     1  UNL1       -0.1499
     29 O          65.0488   92.9574   10.7620 O.2     1  UNL1       -0.1499
     30 N          65.8068   93.7117   12.5941 N.pl3   1  UNL1       -0.1962
     31 H          66.0041   93.8788   13.5441 H       1  UNL1        0.1754
     32 C          66.3461   94.6352   11.5423 C.ar    1  UNL1        0.1893
     33 C          65.9605   96.0718   11.3486 C.ar    1  UNL1        0.0823
     34 C          66.7417   96.6087   10.1861 C.ar    1  UNL1        0.2152
     35 O          67.6102   95.5040    9.6614 O.2     1  UNL1       -0.3489
     36 N          67.3657   94.2843   10.4996 N.ar    1  UNL1       -0.0605
@<TRIPOS>BOND
     1    25    26    1
     2    26    11    1
     3    11    12   ar
     4    12    13   ar
     5    13    18    1
     6    18    19   ar
     7    19    20   ar
     8    20    21   ar
     9    21    22   ar
    10    22    23    1
    11    22    24   ar
    12    13    14   ar
    13    14    15    1
    14    14    16   ar
    15    16    17   ar
    16    17     1    1
    17     1     2   ar
    18     2     3   ar
    19     3     4   ar
    20     4     5   ar
    21     5     6   ar
    22     6     7   ar
    23     7    27    1
    24    27    28    2
    25    27    29    2
    26    27    30    1
    27    30    32    1
    28    32    33   ar
    29    33    34   ar
    30    34    35   ar
    31    35    36   ar
    32     7     8   ar
    33     8     9   ar
    34     9    10   ar
    35    17    11   ar
    36    10     1   ar
    37    24    18   ar
    38    10     5   ar
    39    36    32   ar
    40    30    31    1
@<TRIPOS>MOLECULE
*****
 36 40 0 0 0
SMALL
GASTEIGER

@<TRIPOS>ATOM
      1 C          60.6791   93.2870    1.1404 C.ar    1  UNL1        0.0842
      2 N          62.0954   93.4413    0.6711 N.ar    1  UNL1       -0.2437
      3 C          63.2215   92.8809    1.4881 C.ar    1  UNL1        0.0988
      4 C          62.9314   92.1661    2.7746 C.ar    1  UNL1        0.0207
      5 C          61.5151   92.0118    3.2440 C.ar    1  UNL1        0.0043
      6 C          61.2250   91.2971    4.5304 C.ar    1  UNL1        0.0203
      7 C          59.8087   91.1428    4.9998 C.ar    1  UNL1        0.1252
      8 C          58.6825   91.7033    4.1827 C.ar    1  UNL1        0.0202
      9 C          58.9726   92.4180    2.8963 C.ar    1  UNL1        0.0029
     10 C          60.3890   92.5723    2.4269 C.ar    1  UNL1        0.0179
     11 C          59.3563   95.3320    0.2356 C.ar    1  UNL1        0.1401
     12 C          58.2302   95.8924   -0.5814 C.ar    1  UNL1        0.0378
     13 C          57.3005   94.9684   -1.3108 C.ar    1  UNL1        0.0137
     14 C          57.4970   93.4840   -1.2231 C.ar    1  UNL1        0.0579
     15 CL         56.5674   92.5599   -1.9524 Cl      1  UNL1       -0.0822
     16 C          58.6233   92.9235   -0.4060 C.ar    1  UNL1        0.0159
     17 C          59.5529   93.8475    0.3233 C.ar    1  UNL1        0.0524
     18 C          56.1743   95.5289   -2.1278 C.ar    1  UNL1        0.0031
     19 C          56.4549   96.1561   -3.4612 C.ar    1  UNL1        0.0002
     20 C          55.3288   96.7166   -4.2783 C.ar    1  UNL1        0.0023
     21 C          53.9220   96.6499   -3.7620 C.ar    1  UNL1        0.0296
     22 C          53.6414   96.0227   -2.4285 C.ar    1  UNL1        0.1401
     23 F          52.2347   95.9560   -1.9122 F       1  UNL1       -0.2042
     24 C          54.7676   95.4622   -1.6115 C.ar    1  UNL1        0.0297
     25 C          60.0197   96.6103    2.3981 C.3     1  UNL1        0.2525
     26 O          60.2860   96.2560    0.9651 O.3     1  UNL1       -0.4714
     27 S          59.5186   90.4280    6.2863 S.O2    1  UNL1        0.0748
     28 O          60.9804   90.4402    6.6227 O.2     1  UNL1       -0.1499
     29 O          58.0569   90.4158    5.9498 O.2     1  UNL1       -0.1499
     30 N          59.2285   89.7133    7.5727 N.pl3   1  UNL1       -0.1962
     31 H          58.7915   90.1917    8.3139 H       1  UNL1        0.1754
     32 C          59.6042   88.2696    7.7298 C.ar    1  UNL1        0.1893
     33 C          60.5977   87.7186    8.7092 C.ar    1  UNL1        0.0823
     34 C          60.6598   86.2319    8.5197 C.ar    1  UNL1        0.2152
     35 O          59.7046   85.8640    7.4232 O.2     1  UNL1       -0.3489
     36 N          59.0522   87.1234    6.9350 N.ar    1  UNL1       -0.0605
@<TRIPOS>BOND
     1    25    26    1
     2    26    11    1
     3    11    12   ar
     4    12    13   ar
     5    13    18    1
     6    18    19   ar
     7    19    20   ar
     8    20    21   ar
     9    21    22   ar
    10    22    23    1
    11    22    24   ar
    12    13    14   ar
    13    14    15    1
    14    14    16   ar
    15    16    17   ar
    16    17     1    1
    17     1     2   ar
    18     2     3   ar
    19     3     4   ar
    20     4     5   ar
    21     5     6   ar
    22     6     7   ar
    23     7    27    1
    24    27    28    2
    25    27    29    2
    26    27    30    1
    27    30    32    1
    28    32    33   ar
    29    33    34   ar
    30    34    35   ar
    31    35    36   ar
    32     7     8   ar
    33     8     9   ar
    34     9    10   ar
    35    17    11   ar
    36    10     1   ar
    37    24    18   ar
    38    10     5   ar
    39    36    32   ar
    40    30    31    1
