@<TRIPOS>MOLECULE
*****
 38 41 0 0 0
SMALL
GASTEIGER

@<TRIPOS>ATOM
      1 C          61.9812   89.0489   11.8887 C.3     1  UNL1        0.0800
      2 C          63.1403   89.9631   12.1549 C.ar    1  UNL1        0.0374
      3 C          63.5538   90.9699   11.1227 C.ar    1  UNL1        0.0023
      4 C          64.7129   91.8841   11.3889 C.ar    1  UNL1        0.0181
      5 C          65.1264   92.8909   10.3568 C.ar    1  UNL1        0.0082
      6 C          66.2855   93.8050   10.6229 C.ar    1  UNL1        0.0347
      7 BR         66.6991   94.8118    9.5908 Br      1  UNL1       -0.0490
      8 C          67.0310   93.7123   11.9212 C.ar    1  UNL1        0.0082
      9 C          66.6175   92.7055   12.9534 C.ar    1  UNL1        0.0197
     10 C          65.4585   91.7914   12.6872 C.ar    1  UNL1        0.0844
     11 N          65.0449   90.7845   13.7193 N.ar    1  UNL1       -0.2119
     12 C          63.8858   89.8704   13.4532 C.ar    1  UNL1        0.2211
     13 O          63.4722   88.8635   14.4853 O.3     1  UNL1       -0.4563
     14 C          63.4169   89.2528   15.9328 C.3     1  UNL1        0.2542
     15 C          62.8918   85.9578    9.5722 C.ar    1  UNL1        0.1657
     16 C          62.7150   84.8207   10.5344 C.ar    1  UNL1        0.0392
     17 C          62.2936   85.0931   11.9480 C.ar    1  UNL1        0.0029
     18 C          62.0490   86.5024   12.3995 C.ar    1  UNL1       -0.0014
     19 C          62.2258   87.6395   11.4373 C.ar    1  UNL1        0.0148
     20 C          62.6472   87.3673   10.0237 C.ar    1  UNL1        0.1702
     21 F          62.8240   88.5044    9.0616 F       1  UNL1       -0.2013
     22 C          62.4164   84.9025    7.2463 C.3     1  UNL1        0.2526
     23 O          63.3132   85.6856    8.1587 O.3     1  UNL1       -0.4692
     24 C          60.5774   89.5441   12.0740 C.3     1  UNL1        0.1173
     25 O          60.8961   89.9170   13.4915 O.3     1  UNL1       -0.3819
     26 H          60.0800   90.1702   13.9506 H       1  UNL1        0.2107
     27 C          60.2588   89.1712   10.6565 C.ar    1  UNL1        0.0215
     28 C          59.7646   87.7915   10.3369 C.ar    1  UNL1        0.0007
     29 C          59.4459   87.4186    8.9194 C.ar    1  UNL1        0.0145
     30 C          59.6214   88.4254    7.8214 C.ar    1  UNL1        0.0594
     31 C          59.3027   88.0525    6.4039 C.3     1  UNL1        0.0521
     32 N          60.1156   89.8051    8.1410 N.ar    1  UNL1       -0.2484
     33 C          60.4342   90.1780    9.5585 C.ar    1  UNL1        0.0964
     34 C          59.1737   90.0394   12.2593 C.3     1  UNL1        0.0492
     35 C          58.0221   89.0831   12.1621 C.3     1  UNL1        0.0750
     36 N          57.4819   88.4313   13.4004 N.3     1  UNL1       -0.2702
     37 C          58.3532   88.2867   14.6128 C.3     1  UNL1        0.0897
     38 C          56.0705   87.9241   13.4262 C.3     1  UNL1        0.0897
@<TRIPOS>BOND
     1    22    23    1
     2    23    15    1
     3    15    16   ar
     4    16    17   ar
     5    17    18   ar
     6    18    19   ar
     7    19     1    1
     8     1     2    1
     9     2     3   ar
    10     3     4   ar
    11     4     5   ar
    12     5     6   ar
    13     6     7    1
    14     6     8   ar
    15     8     9   ar
    16     9    10   ar
    17    10    11   ar
    18    11    12   ar
    19    12    13    1
    20    13    14    1
    21     1    24    1
    22    24    25    1
    23    24    34    1
    24    34    35    1
    25    35    36    1
    26    36    37    1
    27    36    38    1
    28    24    27    1
    29    27    28   ar
    30    28    29   ar
    31    29    30   ar
    32    30    31    1
    33    30    32   ar
    34    32    33   ar
    35    19    20   ar
    36    20    21    1
    37    20    15   ar
    38    12     2   ar
    39    33    27   ar
    40    10     4   ar
    41    25    26    1
@<TRIPOS>MOLECULE
*****
 38 41 0 0 0
SMALL
GASTEIGER

@<TRIPOS>ATOM
      1 C          62.6943   89.4475   12.1390 C.3     1  UNL1        0.0800
      2 C          63.0512   88.3586   13.1071 C.ar    1  UNL1        0.0374
      3 C          63.3405   86.9747   12.6061 C.ar    1  UNL1        0.0023
      4 C          63.6974   85.8859   13.5741 C.ar    1  UNL1        0.0181
      5 C          63.9866   84.5020   13.0731 C.ar    1  UNL1        0.0082
      6 C          64.3435   83.4132   14.0412 C.ar    1  UNL1        0.0347
      7 BR         64.6328   82.0293   13.5401 Br      1  UNL1       -0.0490
      8 C          64.4111   83.7084   15.5103 C.ar    1  UNL1        0.0082
      9 C          64.1218   85.0923   16.0113 C.ar    1  UNL1        0.0197
     10 C          63.7650   86.1810   15.0433 C.ar    1  UNL1        0.0844
     11 N          63.4756   87.5650   15.5443 N.ar    1  UNL1       -0.2119
     12 C          63.1188   88.6538   14.5762 C.ar    1  UNL1        0.2211
     13 O          62.8295   90.0378   15.0773 O.3     1  UNL1       -0.4563
     14 C          63.3921   90.4926   16.3913 C.3     1  UNL1        0.2542
     15 C          65.8194   91.8695   12.4817 C.ar    1  UNL1        0.1657
     16 C          65.6330   92.7448   11.2779 C.ar    1  UNL1        0.0392
     17 C          64.4670   92.5210   10.3612 C.ar    1  UNL1        0.0029
     18 C          63.4874   91.4219   10.6482 C.ar    1  UNL1       -0.0014
     19 C          63.6738   90.5466   11.8520 C.ar    1  UNL1        0.0148
     20 C          64.8398   90.7704   12.7687 C.ar    1  UNL1        0.1702
     21 F          65.0262   89.8950   13.9725 F       1  UNL1       -0.2013
     22 C          66.8870   93.1018   14.5043 C.3     1  UNL1        0.2526
     23 O          66.9853   92.0933   13.3984 O.3     1  UNL1       -0.4692
     24 C          61.3578   89.4372   11.4580 C.3     1  UNL1        0.1173
     25 O          60.9858   90.7045   12.1689 O.3     1  UNL1       -0.3819
     26 H          60.0476   90.8977   12.0158 H       1  UNL1        0.2107
     27 C          61.7299   88.1698   10.7472 C.ar    1  UNL1        0.0215
     28 C          62.7438   88.1995    9.6422 C.ar    1  UNL1        0.0007
     29 C          63.1159   86.9321    8.9314 C.ar    1  UNL1        0.0145
     30 C          62.4739   85.6350    9.3254 C.ar    1  UNL1        0.0594
     31 C          62.8459   84.3676    8.6146 C.3     1  UNL1        0.0521
     32 N          61.4599   85.6053   10.4303 N.ar    1  UNL1       -0.2484
     33 C          61.0879   86.8726   11.1412 C.ar    1  UNL1        0.0964
     34 C          60.0214   89.4268   10.7770 C.3     1  UNL1        0.0492
     35 C          59.8901   89.9433    9.3748 C.3     1  UNL1        0.0750
     36 N          59.5347   89.0047    8.2600 N.3     1  UNL1       -0.2702
     37 C          59.5863   89.4765    6.8372 C.3     1  UNL1        0.0897
     38 C          59.1276   87.5943    8.5682 C.3     1  UNL1        0.0897
@<TRIPOS>BOND
     1    22    23    1
     2    23    15    1
     3    15    16   ar
     4    16    17   ar
     5    17    18   ar
     6    18    19   ar
     7    19     1    1
     8     1     2    1
     9     2     3   ar
    10     3     4   ar
    11     4     5   ar
    12     5     6   ar
    13     6     7    1
    14     6     8   ar
    15     8     9   ar
    16     9    10   ar
    17    10    11   ar
    18    11    12   ar
    19    12    13    1
    20    13    14    1
    21     1    24    1
    22    24    25    1
    23    24    34    1
    24    34    35    1
    25    35    36    1
    26    36    37    1
    27    36    38    1
    28    24    27    1
    29    27    28   ar
    30    28    29   ar
    31    29    30   ar
    32    30    31    1
    33    30    32   ar
    34    32    33   ar
    35    19    20   ar
    36    20    21    1
    37    20    15   ar
    38    12     2   ar
    39    33    27   ar
    40    10     4   ar
    41    25    26    1
@<TRIPOS>MOLECULE
*****
 38 41 0 0 0
SMALL
GASTEIGER

@<TRIPOS>ATOM
      1 C          62.7399   88.9855   12.5544 C.3     1  UNL1        0.0800
      2 C          63.0836   87.5976   13.0081 C.ar    1  UNL1        0.0374
      3 C          63.0028   86.4517   12.0435 C.ar    1  UNL1        0.0023
      4 C          63.3465   85.0638   12.4972 C.ar    1  UNL1        0.0181
      5 C          63.2657   83.9180   11.5326 C.ar    1  UNL1        0.0082
      6 C          63.6093   82.5302   11.9863 C.ar    1  UNL1        0.0347
      7 BR         63.5286   81.3842   11.0217 Br      1  UNL1       -0.0490
      8 C          64.0337   82.2882   13.4046 C.ar    1  UNL1        0.0082
      9 C          64.1144   83.4341   14.3691 C.ar    1  UNL1        0.0197
     10 C          63.7708   84.8219   13.9154 C.ar    1  UNL1        0.0844
     11 N          63.8515   85.9679   14.8800 N.ar    1  UNL1       -0.2119
     12 C          63.5079   87.3557   14.4263 C.ar    1  UNL1        0.2211
     13 O          63.5886   88.5016   15.3909 O.3     1  UNL1       -0.4563
     14 C          63.1192   88.3264   16.8047 C.3     1  UNL1        0.2542
     15 C          64.9091   92.1590   11.5677 C.ar    1  UNL1        0.1657
     16 C          65.8358   92.2458   12.7439 C.ar    1  UNL1        0.0392
     17 C          65.7306   91.2458   13.8571 C.ar    1  UNL1        0.0029
     18 C          64.6986   90.1591   13.7939 C.ar    1  UNL1       -0.0014
     19 C          63.7719   90.0722   12.6176 C.ar    1  UNL1        0.0148
     20 C          63.8771   91.0722   11.5045 C.ar    1  UNL1        0.1702
     21 F          62.9504   90.9853   10.3282 F       1  UNL1       -0.2013
     22 C          66.1079   94.1854   10.4694 C.3     1  UNL1        0.2526
     23 O          65.0143   93.1589   10.4546 O.3     1  UNL1       -0.4692
     24 C          61.3644   89.2866   12.0376 C.3     1  UNL1        0.1173
     25 O          61.1831   90.3120   13.1173 O.3     1  UNL1       -0.3819
     26 H          60.2625   90.6176   13.1217 H       1  UNL1        0.2107
     27 C          61.5456   88.2612   10.9579 C.ar    1  UNL1        0.0215
     28 C          62.7021   88.3679   10.0087 C.ar    1  UNL1        0.0007
     29 C          62.8833   87.3426    8.9290 C.ar    1  UNL1        0.0145
     30 C          61.9080   86.2104    8.7985 C.ar    1  UNL1        0.0594
     31 C          62.0893   85.1850    7.7188 C.3     1  UNL1        0.0521
     32 N          60.7515   86.1037    9.7478 N.ar    1  UNL1       -0.2484
     33 C          60.5703   87.1291   10.8274 C.ar    1  UNL1        0.0964
     34 C          59.9888   89.5876   11.5208 C.3     1  UNL1        0.0492
     35 C          58.9062   90.0078   12.4703 C.3     1  UNL1        0.0750
     36 N          58.3322   89.0170   13.4392 N.3     1  UNL1       -0.2702
     37 C          59.0394   88.7357   14.7317 C.3     1  UNL1        0.0897
     38 C          57.0509   88.3073   13.1155 C.3     1  UNL1        0.0897
@<TRIPOS>BOND
     1    22    23    1
     2    23    15    1
     3    15    16   ar
     4    16    17   ar
     5    17    18   ar
     6    18    19   ar
     7    19     1    1
     8     1     2    1
     9     2     3   ar
    10     3     4   ar
    11     4     5   ar
    12     5     6   ar
    13     6     7    1
    14     6     8   ar
    15     8     9   ar
    16     9    10   ar
    17    10    11   ar
    18    11    12   ar
    19    12    13    1
    20    13    14    1
    21     1    24    1
    22    24    25    1
    23    24    34    1
    24    34    35    1
    25    35    36    1
    26    36    37    1
    27    36    38    1
    28    24    27    1
    29    27    28   ar
    30    28    29   ar
    31    29    30   ar
    32    30    31    1
    33    30    32   ar
    34    32    33   ar
    35    19    20   ar
    36    20    21    1
    37    20    15   ar
    38    12     2   ar
    39    33    27   ar
    40    10     4   ar
    41    25    26    1
@<TRIPOS>MOLECULE
*****
 38 41 0 0 0
SMALL
GASTEIGER

@<TRIPOS>ATOM
      1 C          62.8069   89.1034   12.4302 C.3     1  UNL1        0.0800
      2 C          63.1183   87.8299   13.1592 C.ar    1  UNL1        0.0374
      3 C          63.2758   86.5482   12.3962 C.ar    1  UNL1        0.0023
      4 C          63.5872   85.2747   13.1252 C.ar    1  UNL1        0.0181
      5 C          63.7447   83.9930   12.3622 C.ar    1  UNL1        0.0082
      6 C          64.0561   82.7196   13.0912 C.ar    1  UNL1        0.0347
      7 BR         64.2137   81.4378   12.3281 Br      1  UNL1       -0.0490
      8 C          64.2100   82.7280   14.5832 C.ar    1  UNL1        0.0082
      9 C          64.0525   84.0097   15.3463 C.ar    1  UNL1        0.0197
     10 C          63.7411   85.2831   14.6173 C.ar    1  UNL1        0.0844
     11 N          63.5835   86.5649   15.3803 N.ar    1  UNL1       -0.2119
     12 C          63.2721   87.8383   14.6513 C.ar    1  UNL1        0.2211
     13 O          63.1146   89.1201   15.4143 O.3     1  UNL1       -0.4563
     14 C          63.0817   89.1011   16.9138 C.3     1  UNL1        0.2542
     15 C          64.9030   92.2468   11.2157 C.ar    1  UNL1        0.1657
     16 C          65.7949   92.4680   12.4012 C.ar    1  UNL1        0.0392
     17 C          65.6909   91.5675   13.5965 C.ar    1  UNL1        0.0029
     18 C          64.6948   90.4460   13.6061 C.ar    1  UNL1       -0.0014
     19 C          63.8029   90.2249   12.4206 C.ar    1  UNL1        0.0148
     20 C          63.9069   91.1252   11.2254 C.ar    1  UNL1        0.1702
     21 F          63.0149   90.9041   10.0399 F       1  UNL1       -0.2013
     22 C          66.1316   94.1347    9.9212 C.3     1  UNL1        0.2526
     23 O          65.0070   93.1472   10.0205 O.3     1  UNL1       -0.4692
     24 C          61.4994   89.2553   11.7108 C.3     1  UNL1        0.1173
     25 O          61.1706   90.4472   12.5601 O.3     1  UNL1       -0.3819
     26 H          60.2512   90.7130   12.4021 H       1  UNL1        0.2107
     27 C          61.8282   88.0634   10.8616 C.ar    1  UNL1        0.0215
     28 C          62.8747   88.1701    9.7923 C.ar    1  UNL1        0.0007
     29 C          63.2035   86.9782    8.9430 C.ar    1  UNL1        0.0145
     30 C          62.4858   85.6796    9.1630 C.ar    1  UNL1        0.0594
     31 C          62.8146   84.4877    8.3138 C.3     1  UNL1        0.0521
     32 N          61.4393   85.5728   10.2323 N.ar    1  UNL1       -0.2484
     33 C          61.1105   86.7647   11.0816 C.ar    1  UNL1        0.0964
     34 C          60.1919   89.4071   10.9915 C.3     1  UNL1        0.0492
     35 C          60.1653   89.9334    9.5870 C.3     1  UNL1        0.0750
     36 N          59.6536   89.0701    8.4722 N.3     1  UNL1       -0.2702
     37 C          59.7214   89.5568    7.0550 C.3     1  UNL1        0.0897
     38 C          59.0739   87.7200    8.7747 C.3     1  UNL1        0.0897
@<TRIPOS>BOND
     1    22    23    1
     2    23    15    1
     3    15    16   ar
     4    16    17   ar
     5    17    18   ar
     6    18    19   ar
     7    19     1    1
     8     1     2    1
     9     2     3   ar
    10     3     4   ar
    11     4     5   ar
    12     5     6   ar
    13     6     7    1
    14     6     8   ar
    15     8     9   ar
    16     9    10   ar
    17    10    11   ar
    18    11    12   ar
    19    12    13    1
    20    13    14    1
    21     1    24    1
    22    24    25    1
    23    24    34    1
    24    34    35    1
    25    35    36    1
    26    36    37    1
    27    36    38    1
    28    24    27    1
    29    27    28   ar
    30    28    29   ar
    31    29    30   ar
    32    30    31    1
    33    30    32   ar
    34    32    33   ar
    35    19    20   ar
    36    20    21    1
    37    20    15   ar
    38    12     2   ar
    39    33    27   ar
    40    10     4   ar
    41    25    26    1
@<TRIPOS>MOLECULE
*****
 38 41 0 0 0
SMALL
GASTEIGER

@<TRIPOS>ATOM
      1 C          62.1161   89.0929   11.6362 C.3     1  UNL1        0.0800
      2 C          63.2514   90.0126   11.9760 C.ar    1  UNL1        0.0374
      3 C          63.6624   91.0850   11.0111 C.ar    1  UNL1        0.0023
      4 C          64.7977   92.0047   11.3509 C.ar    1  UNL1        0.0181
      5 C          65.2086   93.0771   10.3861 C.ar    1  UNL1        0.0082
      6 C          66.3439   93.9967   10.7259 C.ar    1  UNL1        0.0347
      7 BR         66.7549   95.0692    9.7610 Br      1  UNL1       -0.0490
      8 C          67.0681   93.8439   12.0305 C.ar    1  UNL1        0.0082
      9 C          66.6572   92.7714   12.9953 C.ar    1  UNL1        0.0197
     10 C          65.5219   91.8518   12.6555 C.ar    1  UNL1        0.0844
     11 N          65.1109   90.7793   13.6204 N.ar    1  UNL1       -0.2119
     12 C          63.9757   89.8597   13.2806 C.ar    1  UNL1        0.2211
     13 O          63.5647   88.7872   14.2454 O.3     1  UNL1       -0.4563
     14 C          63.5898   89.0560   15.7209 C.3     1  UNL1        0.2542
     15 C          62.7029   85.1903   11.2172 C.ar    1  UNL1        0.1657
     16 C          62.9473   85.0974    9.7401 C.ar    1  UNL1        0.0392
     17 C          62.9146   86.3364    8.8951 C.ar    1  UNL1        0.0029
     18 C          62.6375   87.6682    9.5271 C.ar    1  UNL1       -0.0014
     19 C          62.3931   87.7611   11.0042 C.ar    1  UNL1        0.0148
     20 C          62.4258   86.5222   11.8492 C.ar    1  UNL1        0.1702
     21 F          62.1814   86.6152   13.3262 F       1  UNL1       -0.2013
     22 C          63.9112   83.6828   12.9541 C.3     1  UNL1        0.2526
     23 O          62.7355   83.9515   12.0622 O.3     1  UNL1       -0.4692
     24 C          60.7038   89.5051   11.9285 C.3     1  UNL1        0.1173
     25 O          61.0926   89.8373   13.3386 O.3     1  UNL1       -0.3819
     26 H          60.2955   90.0282   13.8573 H       1  UNL1        0.2107
     27 C          60.3150   89.1729   10.5184 C.ar    1  UNL1        0.0215
     28 C          59.7322   87.8284   10.1980 C.ar    1  UNL1        0.0007
     29 C          59.3433   87.4962    8.7879 C.ar    1  UNL1        0.0145
     30 C          59.5374   88.5084    7.6981 C.ar    1  UNL1        0.0594
     31 C          59.1486   88.1762    6.2880 C.3     1  UNL1        0.0521
     32 N          60.1202   89.8529    8.0184 N.ar    1  UNL1       -0.2484
     33 C          60.5090   90.1851    9.4286 C.ar    1  UNL1        0.0964
     34 C          59.2915   89.9173   12.2208 C.3     1  UNL1        0.0492
     35 C          58.1882   88.9022   12.1705 C.3     1  UNL1        0.0750
     36 N          57.5774   88.3948   13.4431 N.3     1  UNL1       -0.2702
     37 C          58.4011   88.3250   14.6947 C.3     1  UNL1        0.0897
     38 C          56.1428   87.9570   13.4640 C.3     1  UNL1        0.0897
@<TRIPOS>BOND
     1    22    23    1
     2    23    15    1
     3    15    16   ar
     4    16    17   ar
     5    17    18   ar
     6    18    19   ar
     7    19     1    1
     8     1     2    1
     9     2     3   ar
    10     3     4   ar
    11     4     5   ar
    12     5     6   ar
    13     6     7    1
    14     6     8   ar
    15     8     9   ar
    16     9    10   ar
    17    10    11   ar
    18    11    12   ar
    19    12    13    1
    20    13    14    1
    21     1    24    1
    22    24    25    1
    23    24    34    1
    24    34    35    1
    25    35    36    1
    26    36    37    1
    27    36    38    1
    28    24    27    1
    29    27    28   ar
    30    28    29   ar
    31    29    30   ar
    32    30    31    1
    33    30    32   ar
    34    32    33   ar
    35    19    20   ar
    36    20    21    1
    37    20    15   ar
    38    12     2   ar
    39    33    27   ar
    40    10     4   ar
    41    25    26    1
@<TRIPOS>MOLECULE
*****
 38 41 0 0 0
SMALL
GASTEIGER

@<TRIPOS>ATOM
      1 C          64.5537   91.2066   13.4449 C.3     1  UNL1        0.0800
      2 C          64.1890   90.0883   14.3758 C.ar    1  UNL1        0.0374
      3 C          64.3785   88.6635   13.9470 C.ar    1  UNL1        0.0023
      4 C          64.0137   87.5452   14.8778 C.ar    1  UNL1        0.0181
      5 C          64.2032   86.1204   14.4490 C.ar    1  UNL1        0.0082
      6 C          63.8384   85.0022   15.3798 C.ar    1  UNL1        0.0347
      7 BR         64.0279   83.5773   14.9510 Br      1  UNL1       -0.0490
      8 C          63.2843   85.3088   16.7396 C.ar    1  UNL1        0.0082
      9 C          63.0948   86.7336   17.1684 C.ar    1  UNL1        0.0197
     10 C          63.4595   87.8518   16.2376 C.ar    1  UNL1        0.0844
     11 N          63.2701   89.2767   16.6664 N.ar    1  UNL1       -0.2119
     12 C          63.6348   90.3949   15.7356 C.ar    1  UNL1        0.2211
     13 O          63.4454   91.8198   16.1644 O.3     1  UNL1       -0.4563
     14 C          64.4217   92.4546   17.1099 C.3     1  UNL1        0.2542
     15 C          67.8718   92.6939   15.0349 C.ar    1  UNL1        0.1657
     16 C          67.7839   94.1233   14.5888 C.ar    1  UNL1        0.0392
     17 C          66.6193   94.5805   13.7614 C.ar    1  UNL1        0.0029
     18 C          65.5425   93.6082   13.3801 C.ar    1  UNL1       -0.0014
     19 C          65.6304   92.1788   13.8262 C.ar    1  UNL1        0.0148
     20 C          66.7950   91.7216   14.6536 C.ar    1  UNL1        0.1702
     21 F          66.8829   90.2922   15.0998 F       1  UNL1       -0.2013
     22 C          69.9701   93.2444   16.4645 C.3     1  UNL1        0.2526
     23 O          69.0364   92.2367   15.8624 O.3     1  UNL1       -0.4692
     24 C          63.8417   91.3526   12.1328 C.3     1  UNL1        0.1173
     25 O          62.5732   90.8636   12.7667 O.3     1  UNL1       -0.3819
     26 H          61.9043   90.7164   12.0799 H       1  UNL1        0.2107
     27 C          65.1102   91.8415   11.4989 C.ar    1  UNL1        0.0215
     28 C          66.4173   91.1869   11.8348 C.ar    1  UNL1        0.0007
     29 C          67.6858   91.6758   11.2009 C.ar    1  UNL1        0.0145
     30 C          67.6472   92.8194   10.2310 C.ar    1  UNL1        0.0594
     31 C          68.9157   93.3083    9.5970 C.3     1  UNL1        0.0521
     32 N          66.3401   93.4740    9.8950 N.ar    1  UNL1       -0.2484
     33 C          65.0716   92.9851   10.5290 C.ar    1  UNL1        0.0964
     34 C          63.1297   91.4986   10.8207 C.3     1  UNL1        0.0492
     35 C          62.7184   90.2786   10.0507 C.3     1  UNL1        0.0750
     36 N          61.4887   89.5185   10.4508 N.3     1  UNL1       -0.2702
     37 C          61.5974   88.0814   10.8665 C.3     1  UNL1        0.0897
     38 C          60.1503   90.1956   10.4351 C.3     1  UNL1        0.0897
@<TRIPOS>BOND
     1    22    23    1
     2    23    15    1
     3    15    16   ar
     4    16    17   ar
     5    17    18   ar
     6    18    19   ar
     7    19     1    1
     8     1     2    1
     9     2     3   ar
    10     3     4   ar
    11     4     5   ar
    12     5     6   ar
    13     6     7    1
    14     6     8   ar
    15     8     9   ar
    16     9    10   ar
    17    10    11   ar
    18    11    12   ar
    19    12    13    1
    20    13    14    1
    21     1    24    1
    22    24    25    1
    23    24    34    1
    24    34    35    1
    25    35    36    1
    26    36    37    1
    27    36    38    1
    28    24    27    1
    29    27    28   ar
    30    28    29   ar
    31    29    30   ar
    32    30    31    1
    33    30    32   ar
    34    32    33   ar
    35    19    20   ar
    36    20    21    1
    37    20    15   ar
    38    12     2   ar
    39    33    27   ar
    40    10     4   ar
    41    25    26    1
@<TRIPOS>MOLECULE
*****
 38 41 0 0 0
SMALL
GASTEIGER

@<TRIPOS>ATOM
      1 C          63.2222   89.6018   12.9294 C.3     1  UNL1        0.0800
      2 C          62.3499   88.8683   11.9542 C.ar    1  UNL1        0.0374
      3 C          62.9703   88.0299   10.8761 C.ar    1  UNL1        0.0023
      4 C          62.0980   87.2964    9.9009 C.ar    1  UNL1        0.0181
      5 C          62.7185   86.4581    8.8228 C.ar    1  UNL1        0.0082
      6 C          61.8462   85.7247    7.8476 C.ar    1  UNL1        0.0347
      7 BR         62.4666   84.8863    6.7696 Br      1  UNL1       -0.0490
      8 C          60.3534   85.8296    7.9505 C.ar    1  UNL1        0.0082
      9 C          59.7329   86.6679    9.0285 C.ar    1  UNL1        0.0197
     10 C          60.6052   87.4013   10.0037 C.ar    1  UNL1        0.0844
     11 N          59.9848   88.2397   11.0818 N.ar    1  UNL1       -0.2119
     12 C          60.8571   88.9732   12.0570 C.ar    1  UNL1        0.2211
     13 O          60.2366   89.8116   13.1351 O.3     1  UNL1       -0.4563
     14 C          59.0067   89.3295   13.8456 C.3     1  UNL1        0.2542
     15 C          66.3386   92.0544   12.7799 C.ar    1  UNL1        0.1657
     16 C          66.1068   92.7272   11.4595 C.ar    1  UNL1        0.0392
     17 C          64.9134   92.3581   10.6290 C.ar    1  UNL1        0.0029
     18 C          63.9519   91.3163   11.1190 C.ar    1  UNL1       -0.0014
     19 C          64.1837   90.6436   12.4394 C.ar    1  UNL1        0.0148
     20 C          65.3771   91.0126   13.2699 C.ar    1  UNL1        0.1702
     21 F          65.6089   90.3398   14.5904 F       1  UNL1       -0.2013
     22 C          67.3527   93.2202   14.8686 C.3     1  UNL1        0.2526
     23 O          67.5320   92.4234   13.6104 O.3     1  UNL1       -0.4692
     24 C          63.1330   89.2934   14.3947 C.3     1  UNL1        0.1173
     25 O          62.7164   90.7085   14.6671 O.3     1  UNL1       -0.3819
     26 H          62.7052   90.8636   15.6245 H       1  UNL1        0.2107
     27 C          63.5495   87.8784   14.1223 C.ar    1  UNL1        0.0215
     28 C          64.7961   87.3294   14.7504 C.ar    1  UNL1        0.0007
     29 C          65.2127   85.9144   14.4780 C.ar    1  UNL1        0.0145
     30 C          64.3826   85.0484   13.5775 C.ar    1  UNL1        0.0594
     31 C          64.7991   83.6334   13.3051 C.3     1  UNL1        0.0521
     32 N          63.1360   85.5974   12.9494 N.ar    1  UNL1       -0.2484
     33 C          62.7194   87.0124   13.2218 C.ar    1  UNL1        0.0964
     34 C          63.0437   88.9851   15.8599 C.3     1  UNL1        0.0492
     35 C          61.9376   88.1137   16.3770 C.3     1  UNL1        0.0750
     36 N          62.2615   86.8780   17.1633 N.3     1  UNL1       -0.2702
     37 C          62.0955   85.5254   16.5367 C.3     1  UNL1        0.0897
     38 C          62.7515   86.9952   18.5762 C.3     1  UNL1        0.0897
@<TRIPOS>BOND
     1    22    23    1
     2    23    15    1
     3    15    16   ar
     4    16    17   ar
     5    17    18   ar
     6    18    19   ar
     7    19     1    1
     8     1     2    1
     9     2     3   ar
    10     3     4   ar
    11     4     5   ar
    12     5     6   ar
    13     6     7    1
    14     6     8   ar
    15     8     9   ar
    16     9    10   ar
    17    10    11   ar
    18    11    12   ar
    19    12    13    1
    20    13    14    1
    21     1    24    1
    22    24    25    1
    23    24    34    1
    24    34    35    1
    25    35    36    1
    26    36    37    1
    27    36    38    1
    28    24    27    1
    29    27    28   ar
    30    28    29   ar
    31    29    30   ar
    32    30    31    1
    33    30    32   ar
    34    32    33   ar
    35    19    20   ar
    36    20    21    1
    37    20    15   ar
    38    12     2   ar
    39    33    27   ar
    40    10     4   ar
    41    25    26    1
@<TRIPOS>MOLECULE
*****
 38 41 0 0 0
SMALL
GASTEIGER

@<TRIPOS>ATOM
      1 C          62.7049   89.4723   12.3909 C.3     1  UNL1        0.0800
      2 C          63.0795   88.2822   13.2237 C.ar    1  UNL1        0.0374
      3 C          63.3204   86.9544   12.5689 C.ar    1  UNL1        0.0023
      4 C          63.6950   85.7644   13.4018 C.ar    1  UNL1        0.0181
      5 C          63.9358   84.4365   12.7470 C.ar    1  UNL1        0.0082
      6 C          64.3104   83.2466   13.5798 C.ar    1  UNL1        0.0347
      7 BR         64.5513   81.9187   12.9251 Br      1  UNL1       -0.0490
      8 C          64.4442   83.3845   15.0675 C.ar    1  UNL1        0.0082
      9 C          64.2033   84.7123   15.7223 C.ar    1  UNL1        0.0197
     10 C          63.8287   85.9023   14.8894 C.ar    1  UNL1        0.0844
     11 N          63.5878   87.2302   15.5442 N.ar    1  UNL1       -0.2119
     12 C          63.2132   88.4201   14.7114 C.ar    1  UNL1        0.2211
     13 O          62.9724   89.7480   15.3662 O.3     1  UNL1       -0.4563
     14 C          63.2334   89.9191   16.8333 C.3     1  UNL1        0.2542
     15 C          65.9247   91.7754   12.6708 C.ar    1  UNL1        0.1657
     16 C          65.7880   92.6059   11.4292 C.ar    1  UNL1        0.0392
     17 C          64.6236   92.3918   10.5081 C.ar    1  UNL1        0.0029
     18 C          63.5959   91.3472   10.8287 C.ar    1  UNL1       -0.0014
     19 C          63.7326   90.5168   12.0703 C.ar    1  UNL1        0.0148
     20 C          64.8969   90.7309   12.9914 C.ar    1  UNL1        0.1702
     21 F          65.0336   89.9004   14.2330 F       1  UNL1       -0.2013
     22 C          67.1297   93.1967   14.4812 C.3     1  UNL1        0.2526
     23 O          67.0890   91.9895   13.5919 O.3     1  UNL1       -0.4692
     24 C          61.3026   89.6177   11.8786 C.3     1  UNL1        0.1173
     25 O          61.0644   90.7369   12.8485 O.3     1  UNL1       -0.3819
     26 H          60.1240   90.9748   12.8430 H       1  UNL1        0.2107
     27 C          61.5408   88.4985   10.9087 C.ar    1  UNL1        0.0215
     28 C          60.7288   87.2407   11.0007 C.ar    1  UNL1        0.0007
     29 C          60.9670   86.1216   10.0308 C.ar    1  UNL1        0.0145
     30 C          62.0173   86.2602    8.9689 C.ar    1  UNL1        0.0594
     31 C          62.2556   85.1410    7.9990 C.3     1  UNL1        0.0521
     32 N          62.8294   87.5180    8.8770 N.ar    1  UNL1       -0.2484
     33 C          62.5912   88.6371    9.8469 C.ar    1  UNL1        0.0964
     34 C          59.9003   89.7631   11.3664 C.3     1  UNL1        0.0492
     35 C          58.7878   90.1048   12.3128 C.3     1  UNL1        0.0750
     36 N          58.3055   89.0860   13.3024 N.3     1  UNL1       -0.2702
     37 C          57.0245   88.3464   13.0534 C.3     1  UNL1        0.0897
     38 C          59.1042   88.8068   14.5410 C.3     1  UNL1        0.0897
@<TRIPOS>BOND
     1    22    23    1
     2    23    15    1
     3    15    16   ar
     4    16    17   ar
     5    17    18   ar
     6    18    19   ar
     7    19     1    1
     8     1     2    1
     9     2     3   ar
    10     3     4   ar
    11     4     5   ar
    12     5     6   ar
    13     6     7    1
    14     6     8   ar
    15     8     9   ar
    16     9    10   ar
    17    10    11   ar
    18    11    12   ar
    19    12    13    1
    20    13    14    1
    21     1    24    1
    22    24    25    1
    23    24    34    1
    24    34    35    1
    25    35    36    1
    26    36    37    1
    27    36    38    1
    28    24    27    1
    29    27    28   ar
    30    28    29   ar
    31    29    30   ar
    32    30    31    1
    33    30    32   ar
    34    32    33   ar
    35    19    20   ar
    36    20    21    1
    37    20    15   ar
    38    12     2   ar
    39    33    27   ar
    40    10     4   ar
    41    25    26    1
@<TRIPOS>MOLECULE
*****
 38 41 0 0 0
SMALL
GASTEIGER

@<TRIPOS>ATOM
      1 C          61.9813   89.1168   11.7461 C.3     1  UNL1        0.0800
      2 C          63.0961   90.0553   12.1019 C.ar    1  UNL1        0.0374
      3 C          63.6605   90.9778   11.0625 C.ar    1  UNL1        0.0023
      4 C          64.7753   91.9163   11.4183 C.ar    1  UNL1        0.0181
      5 C          65.3397   92.8387   10.3789 C.ar    1  UNL1        0.0082
      6 C          66.4544   93.7771   10.7348 C.ar    1  UNL1        0.0347
      7 BR         67.0189   94.6996    9.6953 Br      1  UNL1       -0.0490
      8 C          67.0047   93.7931   12.1301 C.ar    1  UNL1        0.0082
      9 C          66.4403   92.8707   13.1695 C.ar    1  UNL1        0.0197
     10 C          65.3256   91.9322   12.8136 C.ar    1  UNL1        0.0844
     11 N          64.7611   91.0097   13.8531 N.ar    1  UNL1       -0.2119
     12 C          63.6464   90.0713   13.4972 C.ar    1  UNL1        0.2211
     13 O          63.0819   89.1488   14.5367 O.3     1  UNL1       -0.4563
     14 C          63.2249   89.4819   15.9922 C.3     1  UNL1        0.2542
     15 C          58.1473   89.0862   12.7706 C.ar    1  UNL1        0.1657
     16 C          57.7016   90.4166   12.2404 C.ar    1  UNL1        0.0392
     17 C          58.6824   91.3138   11.5454 C.ar    1  UNL1        0.0029
     18 C          60.1090   90.8806   11.3806 C.ar    1  UNL1       -0.0014
     19 C          60.5548   89.5501   11.9108 C.ar    1  UNL1        0.0148
     20 C          59.5740   88.6529   12.6058 C.ar    1  UNL1        0.1702
     21 F          60.0197   87.3224   13.1360 F       1  UNL1       -0.2013
     22 C          55.7248   88.1909   13.0520 C.3     1  UNL1        0.2526
     23 O          57.1666   88.1890   13.4656 O.3     1  UNL1       -0.4692
     24 C          62.2932   87.7451   11.2255 C.3     1  UNL1        0.1173
     25 O          63.2028   87.5082   12.3944 O.3     1  UNL1       -0.3819
     26 H          63.6928   86.6819   12.2605 H       1  UNL1        0.2107
     27 C          61.3835   87.9819   10.0565 C.ar    1  UNL1        0.0215
     28 C          60.4035   86.9245    9.6425 C.ar    1  UNL1        0.0007
     29 C          59.4938   87.1613    8.4736 C.ar    1  UNL1        0.0145
     30 C          59.5641   88.4555    7.7187 C.ar    1  UNL1        0.0594
     31 C          58.6544   88.6924    6.5498 C.3     1  UNL1        0.0521
     32 N          60.5441   89.5130    8.1327 N.ar    1  UNL1       -0.2484
     33 C          61.4538   89.2761    9.3016 C.ar    1  UNL1        0.0964
     34 C          62.6050   86.3733   10.7048 C.3     1  UNL1        0.0492
     35 C          62.4231   85.1759   11.5899 C.3     1  UNL1        0.0750
     36 N          63.5495   84.2030   11.7762 N.3     1  UNL1       -0.2702
     37 C          64.0124   83.3619   10.6238 C.3     1  UNL1        0.0897
     38 C          64.2130   84.0712   13.1151 C.3     1  UNL1        0.0897
@<TRIPOS>BOND
     1    22    23    1
     2    23    15    1
     3    15    16   ar
     4    16    17   ar
     5    17    18   ar
     6    18    19   ar
     7    19     1    1
     8     1     2    1
     9     2     3   ar
    10     3     4   ar
    11     4     5   ar
    12     5     6   ar
    13     6     7    1
    14     6     8   ar
    15     8     9   ar
    16     9    10   ar
    17    10    11   ar
    18    11    12   ar
    19    12    13    1
    20    13    14    1
    21     1    24    1
    22    24    25    1
    23    24    34    1
    24    34    35    1
    25    35    36    1
    26    36    37    1
    27    36    38    1
    28    24    27    1
    29    27    28   ar
    30    28    29   ar
    31    29    30   ar
    32    30    31    1
    33    30    32   ar
    34    32    33   ar
    35    19    20   ar
    36    20    21    1
    37    20    15   ar
    38    12     2   ar
    39    33    27   ar
    40    10     4   ar
    41    25    26    1
