@<TRIPOS>MOLECULE
*****
 45 49 0 0 0
SMALL
GASTEIGER

@<TRIPOS>ATOM
      1 C          61.0539   88.4845    9.3032 C.ar    1  UNL1        0.1512
      2 C          60.4431   89.6724    8.6208 C.ar    1  UNL1        0.0619
      3 C          59.7852   89.1954    7.3601 C.ar    1  UNL1        0.0987
      4 S          59.9893   87.7125    7.2632 S.2     1  UNL1       -0.0618
      5 C          60.7734   87.2731    8.4641 C.ar    1  UNL1        0.1178
      6 N          59.0519   90.0510    6.3700 N.ar    1  UNL1       -0.2823
      7 C          57.5650   90.2328    6.2926 C.ar    1  UNL1        0.1831
      8 N          57.2709   91.1691    5.1582 N.ar    1  UNL1       -0.2236
      9 C          58.5761   91.5660    4.5346 C.ar    1  UNL1        0.0991
     10 C          58.9045   92.4674    3.3815 C.ar    1  UNL1        0.0206
     11 C          60.3336   92.6778    2.9773 C.ar    1  UNL1        0.0017
     12 C          61.4343   91.9867    3.7263 C.ar    1  UNL1        0.0016
     13 C          61.1059   91.0853    4.8793 C.ar    1  UNL1        0.0191
     14 C          59.6768   90.8750    5.2835 C.ar    1  UNL1        0.0835
     15 C          60.6621   93.5792    1.8242 C.ar    1  UNL1        0.0044
     16 C          60.2657   95.0252    1.8661 C.ar    1  UNL1        0.0208
     17 C          60.5941   95.9267    0.7131 C.ar    1  UNL1        0.1003
     18 N          61.3189   95.3820   -0.4820 N.ar    1  UNL1       -0.2294
     19 C          61.7153   93.9359   -0.5239 C.ar    1  UNL1        0.1285
     20 C          61.3869   93.0345    0.6292 C.ar    1  UNL1        0.0341
     21 N          62.4401   93.3913   -1.7188 N.pl3   1  UNL1       -0.3169
     22 H          61.9775   92.7841   -2.3406 H       1  UNL1        0.1482
     23 C          63.8697   93.7718   -1.9665 C.3     1  UNL1        0.1057
     24 C          64.4500   94.9830   -1.2986 C.3     1  UNL1        0.0936
     25 N          64.9415   94.8963    0.1159 N.3     1  UNL1       -0.2689
     26 C          65.2834   93.5624    0.7106 C.3     1  UNL1        0.0897
     27 C          65.0911   96.1436    0.9358 C.3     1  UNL1        0.0897
     28 C          61.2018   85.8689    8.7719 C.2     1  UNL1        0.2518
     29 N          61.4215   85.4465   10.1943 N.am    1  UNL1       -0.3248
     30 O          61.4105   84.8871    7.6572 O.2     1  UNL1       -0.2697
     31 H          61.2845   86.0909   10.9259 H       1  UNL1        0.1453
     32 H          61.7026   84.5249   10.3963 H       1  UNL1        0.1453
     33 O          61.8120   88.5043   10.5973 O.3     1  UNL1       -0.4740
     34 C          60.5944   90.0756   12.2701 C.3     1  UNL1        0.0523
     35 C          61.8051   89.7371   11.4518 C.3     1  UNL1        0.1882
     36 C          63.0088   90.6313   11.4879 C.ar    1  UNL1        0.0211
     37 C          63.3213   91.5161   10.3177 C.ar    1  UNL1       -0.0009
     38 C          64.5250   92.4103   10.3538 C.ar    1  UNL1       -0.0002
     39 C          65.4163   92.4197   11.5602 C.ar    1  UNL1       -0.0001
     40 C          65.1039   91.5350   12.7305 C.ar    1  UNL1        0.0036
     41 C          63.9001   90.6407   12.6944 C.ar    1  UNL1        0.0708
     42 C          63.5877   89.7560   13.8646 C.3     1  UNL1        0.4184
     43 F          63.2753   88.8711   15.0349 F       1  UNL1       -0.1659
     44 F          63.9765   88.5523   13.0584 F       1  UNL1       -0.1659
     45 F          63.1988   90.9596   14.6708 F       1  UNL1       -0.1659
@<TRIPOS>BOND
     1    35    34    1
     2    35    33    1
     3    33     1    1
     4     1     2   ar
     5     2     3   ar
     6     3     6    1
     7     6     7   ar
     8     7     8   ar
     9     8     9   ar
    10     9    10   ar
    11    10    11   ar
    12    11    15    1
    13    15    16   ar
    14    16    17   ar
    15    17    18   ar
    16    18    19   ar
    17    19    21    1
    18    21    23    1
    19    23    24    1
    20    24    25    1
    21    25    26    1
    22    25    27    1
    23    19    20   ar
    24    11    12   ar
    25    12    13   ar
    26    13    14   ar
    27     3     4   ar
    28     4     5   ar
    29     5    28    1
    30    28    29   am
    31    28    30    2
    32    35    36    1
    33    36    37   ar
    34    37    38   ar
    35    38    39   ar
    36    39    40   ar
    37    40    41   ar
    38    41    42    1
    39    42    43    1
    40    42    44    1
    41    42    45    1
    42     5     1   ar
    43    41    36   ar
    44    14     6   ar
    45    14     9   ar
    46    20    15   ar
    47    21    22    1
    48    29    31    1
    49    29    32    1
@<TRIPOS>MOLECULE
*****
 45 49 0 0 0
SMALL
GASTEIGER

@<TRIPOS>ATOM
      1 C          61.0053   88.6025    9.2249 C.ar    1  UNL1        0.1512
      2 C          60.4965   89.8166    8.5058 C.ar    1  UNL1        0.0619
      3 C          59.8042   89.3591    7.2562 C.ar    1  UNL1        0.0987
      4 S          59.8852   87.8623    7.2030 S.2     1  UNL1       -0.0618
      5 C          60.6275   87.3946    8.4196 C.ar    1  UNL1        0.1178
      6 N          59.1465   90.2433    6.2386 N.ar    1  UNL1       -0.2823
      7 C          57.6807   90.5501    6.1529 C.ar    1  UNL1        0.1831
      8 N          57.4674   91.4722    4.9893 N.ar    1  UNL1       -0.2236
      9 C          58.8014   91.7354    4.3558 C.ar    1  UNL1        0.0991
     10 C          59.2051   92.5685    3.1756 C.ar    1  UNL1        0.0206
     11 C          60.6466   92.6421    2.7675 C.ar    1  UNL1        0.0017
     12 C          61.6844   91.8825    3.5397 C.ar    1  UNL1        0.0016
     13 C          61.2806   91.0494    4.7198 C.ar    1  UNL1        0.0191
     14 C          59.8391   90.9759    5.1279 C.ar    1  UNL1        0.0835
     15 C          61.0505   93.4752    1.5873 C.ar    1  UNL1        0.0044
     16 C          61.8335   94.7380    1.7934 C.ar    1  UNL1        0.0208
     17 C          62.2373   95.5711    0.6133 C.ar    1  UNL1        0.1003
     18 N          61.8582   95.1415   -0.7730 N.ar    1  UNL1       -0.2294
     19 C          61.0752   93.8788   -0.9791 C.ar    1  UNL1        0.1285
     20 C          60.6713   93.0457    0.2011 C.ar    1  UNL1        0.0341
     21 N          60.6960   93.4492   -2.3654 N.pl3   1  UNL1       -0.3169
     22 H          61.3143   92.8965   -2.8958 H       1  UNL1        0.1482
     23 C          59.3748   93.8618   -2.9433 C.3     1  UNL1        0.1057
     24 C          58.3513   92.8223   -3.2924 C.3     1  UNL1        0.0936
     25 N          57.2003   92.5624   -2.3663 N.3     1  UNL1       -0.2689
     26 C          56.0842   91.6558   -2.7933 C.3     1  UNL1        0.0897
     27 C          57.1655   93.2090   -1.0133 C.3     1  UNL1        0.0897
     28 C          60.9375   85.9693    8.7696 C.2     1  UNL1        0.2518
     29 N          61.2519   85.5967   10.1882 N.am    1  UNL1       -0.3248
     30 O          60.9332   84.9166    7.7010 O.2     1  UNL1       -0.2697
     31 H          61.2548   86.2876   10.8895 H       1  UNL1        0.1453
     32 H          61.4554   84.6612   10.4179 H       1  UNL1        0.1453
     33 O          61.7595   88.5971   10.5214 O.3     1  UNL1       -0.4740
     34 C          60.5578   90.1770   12.1977 C.3     1  UNL1        0.0523
     35 C          61.7695   89.8212   11.3883 C.3     1  UNL1        0.1882
     36 C          62.9913   90.6895   11.4458 C.ar    1  UNL1        0.0211
     37 C          63.3281   91.5877   10.2927 C.ar    1  UNL1       -0.0009
     38 C          64.5499   92.4560   10.3502 C.ar    1  UNL1       -0.0002
     39 C          65.4350   92.4260   11.5608 C.ar    1  UNL1       -0.0001
     40 C          65.0983   91.5278   12.7139 C.ar    1  UNL1        0.0036
     41 C          63.8764   90.6595   12.6565 C.ar    1  UNL1        0.0708
     42 C          63.5397   89.7613   13.8096 C.3     1  UNL1        0.4184
     43 F          63.2030   88.8631   14.9628 F       1  UNL1       -0.1659
     44 F          63.1501   90.9570   14.6272 F       1  UNL1       -0.1659
     45 F          63.9293   88.5656   12.9921 F       1  UNL1       -0.1659
@<TRIPOS>BOND
     1    35    34    1
     2    35    33    1
     3    33     1    1
     4     1     2   ar
     5     2     3   ar
     6     3     6    1
     7     6     7   ar
     8     7     8   ar
     9     8     9   ar
    10     9    10   ar
    11    10    11   ar
    12    11    15    1
    13    15    16   ar
    14    16    17   ar
    15    17    18   ar
    16    18    19   ar
    17    19    21    1
    18    21    23    1
    19    23    24    1
    20    24    25    1
    21    25    26    1
    22    25    27    1
    23    19    20   ar
    24    11    12   ar
    25    12    13   ar
    26    13    14   ar
    27     3     4   ar
    28     4     5   ar
    29     5    28    1
    30    28    29   am
    31    28    30    2
    32    35    36    1
    33    36    37   ar
    34    37    38   ar
    35    38    39   ar
    36    39    40   ar
    37    40    41   ar
    38    41    42    1
    39    42    43    1
    40    42    44    1
    41    42    45    1
    42     5     1   ar
    43    41    36   ar
    44    14     6   ar
    45    14     9   ar
    46    20    15   ar
    47    21    22    1
    48    29    31    1
    49    29    32    1
@<TRIPOS>MOLECULE
*****
 45 49 0 0 0
SMALL
GASTEIGER

@<TRIPOS>ATOM
      1 C          60.2964   88.5790    8.9676 C.ar    1  UNL1        0.1512
      2 C          59.9149   89.8608    8.2882 C.ar    1  UNL1        0.0619
      3 C          59.5614   89.5439    6.8654 C.ar    1  UNL1        0.0987
      4 S          59.7244   88.0663    6.6652 S.2     1  UNL1       -0.0618
      5 C          60.1787   87.4700    7.9645 C.ar    1  UNL1        0.1178
      6 N          59.1220   90.5313    5.8252 N.ar    1  UNL1       -0.2823
      7 C          57.7254   91.0418    5.6283 C.ar    1  UNL1        0.1831
      8 N          57.7424   92.0075    4.4806 N.ar    1  UNL1       -0.2236
      9 C          59.1495   92.0939    3.9683 C.ar    1  UNL1        0.0991
     10 C          59.7645   92.8855    2.8524 C.ar    1  UNL1        0.0206
     11 C          61.2322   92.7646    2.5675 C.ar    1  UNL1        0.0017
     12 C          62.0849   91.8523    3.3985 C.ar    1  UNL1        0.0016
     13 C          61.4699   91.0607    4.5143 C.ar    1  UNL1        0.0191
     14 C          60.0022   91.1815    4.7992 C.ar    1  UNL1        0.0835
     15 C          61.8473   93.5562    1.4516 C.ar    1  UNL1        0.0044
     16 C          63.3252   93.8125    1.4399 C.ar    1  UNL1        0.0208
     17 C          63.9403   94.6041    0.3241 C.ar    1  UNL1        0.1003
     18 N          63.0775   95.1393   -0.7801 N.ar    1  UNL1       -0.2294
     19 C          61.5996   94.8830   -0.7684 C.ar    1  UNL1        0.1285
     20 C          60.9845   94.0914    0.3475 C.ar    1  UNL1        0.0341
     21 N          60.7368   95.4181   -1.8725 N.pl3   1  UNL1       -0.3169
     22 H          61.1446   95.7013   -2.7227 H       1  UNL1        0.1482
     23 C          59.2527   95.5218   -1.6814 C.3     1  UNL1        0.1057
     24 C          58.3258   94.7523   -2.5751 C.3     1  UNL1        0.0936
     25 N          57.9626   93.3365   -2.2382 N.3     1  UNL1       -0.2689
     26 C          57.6171   92.9666   -0.8263 C.3     1  UNL1        0.0897
     27 C          57.9450   92.2906   -3.3133 C.3     1  UNL1        0.0897
     28 C          60.4650   86.0192    8.2164 C.2     1  UNL1        0.2518
     29 N          61.0055   85.5811    9.5453 N.am    1  UNL1       -0.3248
     30 O          60.2107   85.0065    7.1394 O.2     1  UNL1       -0.2697
     31 H          61.1723   86.2457   10.2521 H       1  UNL1        0.1453
     32 H          61.1933   84.6289    9.7106 H       1  UNL1        0.1453
     33 O          60.7210   88.4321   10.3986 O.3     1  UNL1       -0.4740
     34 C          62.8646   89.8698   10.1019 C.3     1  UNL1        0.0523
     35 C          62.1261   88.7680   10.8023 C.3     1  UNL1        0.1882
     36 C          62.7926   88.0021   11.9064 C.ar    1  UNL1        0.0211
     37 C          62.8132   86.5026   11.8728 C.ar    1  UNL1       -0.0009
     38 C          63.4797   85.7366   12.9769 C.ar    1  UNL1       -0.0002
     39 C          64.1257   86.4702   14.1146 C.ar    1  UNL1       -0.0001
     40 C          64.1052   87.9696   14.1483 C.ar    1  UNL1        0.0036
     41 C          63.4387   88.7356   13.0442 C.ar    1  UNL1        0.0708
     42 C          63.4182   90.2350   13.0779 C.3     1  UNL1        0.4184
     43 F          63.3976   91.7345   13.1116 F       1  UNL1       -0.1659
     44 F          61.9329   90.2100   13.2861 F       1  UNL1       -0.1659
     45 F          64.9034   90.2601   12.8697 F       1  UNL1       -0.1659
@<TRIPOS>BOND
     1    35    34    1
     2    35    33    1
     3    33     1    1
     4     1     2   ar
     5     2     3   ar
     6     3     6    1
     7     6     7   ar
     8     7     8   ar
     9     8     9   ar
    10     9    10   ar
    11    10    11   ar
    12    11    15    1
    13    15    16   ar
    14    16    17   ar
    15    17    18   ar
    16    18    19   ar
    17    19    21    1
    18    21    23    1
    19    23    24    1
    20    24    25    1
    21    25    26    1
    22    25    27    1
    23    19    20   ar
    24    11    12   ar
    25    12    13   ar
    26    13    14   ar
    27     3     4   ar
    28     4     5   ar
    29     5    28    1
    30    28    29   am
    31    28    30    2
    32    35    36    1
    33    36    37   ar
    34    37    38   ar
    35    38    39   ar
    36    39    40   ar
    37    40    41   ar
    38    41    42    1
    39    42    43    1
    40    42    44    1
    41    42    45    1
    42     5     1   ar
    43    41    36   ar
    44    14     6   ar
    45    14     9   ar
    46    20    15   ar
    47    21    22    1
    48    29    31    1
    49    29    32    1
@<TRIPOS>MOLECULE
*****
 45 49 0 0 0
SMALL
GASTEIGER

@<TRIPOS>ATOM
      1 C          60.3178   91.3283    4.9636 C.ar    1  UNL1        0.1512
      2 C          60.9236   90.3210    5.8955 C.ar    1  UNL1        0.0619
      3 C          59.8069   89.5498    6.5342 C.ar    1  UNL1        0.0987
      4 S          58.5108   90.0803    5.9971 S.2     1  UNL1       -0.0618
      5 C          58.8265   91.1795    5.0264 C.ar    1  UNL1        0.1178
      6 N          59.9594   88.4424    7.5345 N.ar    1  UNL1       -0.2823
      7 C          59.2646   87.1138    7.4917 C.ar    1  UNL1        0.1831
      8 N          59.7093   86.3195    8.6839 N.ar    1  UNL1       -0.2236
      9 C          60.6790   87.1573    9.4635 C.ar    1  UNL1        0.0991
     10 C          61.4412   86.8950   10.7285 C.ar    1  UNL1        0.0206
     11 C          62.3580   87.9447   11.2831 C.ar    1  UNL1        0.0017
     12 C          62.5126   89.2567   10.5727 C.ar    1  UNL1        0.0016
     13 C          61.7504   89.5191    9.3077 C.ar    1  UNL1        0.0191
     14 C          60.8336   88.4694    8.7531 C.ar    1  UNL1        0.0835
     15 C          63.1202   87.6824   12.5481 C.ar    1  UNL1        0.0044
     16 C          63.6458   88.8299   13.3587 C.ar    1  UNL1        0.0208
     17 C          64.4080   88.5676   14.6236 C.ar    1  UNL1        0.1003
     18 N          64.6447   87.1578   15.0781 N.ar    1  UNL1       -0.2294
     19 C          64.1191   86.0103   14.2676 C.ar    1  UNL1        0.1285
     20 C          63.3569   86.2726   13.0025 C.ar    1  UNL1        0.0341
     21 N          64.3558   84.6006   14.7220 N.pl3   1  UNL1       -0.3169
     22 H          65.2336   84.1783   14.5795 H       1  UNL1        0.1482
     23 C          63.2549   83.8342   15.3934 C.3     1  UNL1        0.1057
     24 C          62.3184   82.9950   14.5756 C.3     1  UNL1        0.0936
     25 N          62.8398   82.2097   13.4087 N.3     1  UNL1       -0.2689
     26 C          63.4702   80.8668   13.6301 C.3     1  UNL1        0.0897
     27 C          62.7307   82.7674   12.0206 C.3     1  UNL1        0.0897
     28 C          57.8265   91.9879    4.2541 C.2     1  UNL1        0.2518
     29 N          58.1938   92.5541    2.9145 N.am    1  UNL1       -0.3248
     30 O          56.4592   92.2302    4.8214 O.2     1  UNL1       -0.2697
     31 H          59.0912   92.3951    2.5421 H       1  UNL1        0.1453
     32 H          57.5374   93.0847    2.4076 H       1  UNL1        0.1453
     33 O          61.0709   92.3115    4.1175 O.3     1  UNL1       -0.4740
     34 C          63.0783   90.8651    3.3248 C.3     1  UNL1        0.0523
     35 C          61.9660   91.8234    3.0173 C.3     1  UNL1        0.1882
     36 C          61.7488   92.2934    1.6095 C.ar    1  UNL1        0.0211
     37 C          60.6448   91.7027    0.7835 C.ar    1  UNL1       -0.0009
     38 C          60.4276   92.1728   -0.6243 C.ar    1  UNL1       -0.0002
     39 C          61.3143   93.2336   -1.2060 C.ar    1  UNL1       -0.0001
     40 C          62.4182   93.8243   -0.3800 C.ar    1  UNL1        0.0036
     41 C          62.6355   93.3542    1.0278 C.ar    1  UNL1        0.0708
     42 C          63.7394   93.9449    1.8538 C.3     1  UNL1        0.4184
     43 F          64.8434   94.5357    2.6798 F       1  UNL1       -0.1659
     44 F          62.8208   95.0459    2.2941 F       1  UNL1       -0.1659
     45 F          64.6581   92.8439    1.4135 F       1  UNL1       -0.1659
@<TRIPOS>BOND
     1    35    34    1
     2    35    33    1
     3    33     1    1
     4     1     2   ar
     5     2     3   ar
     6     3     6    1
     7     6     7   ar
     8     7     8   ar
     9     8     9   ar
    10     9    10   ar
    11    10    11   ar
    12    11    15    1
    13    15    16   ar
    14    16    17   ar
    15    17    18   ar
    16    18    19   ar
    17    19    21    1
    18    21    23    1
    19    23    24    1
    20    24    25    1
    21    25    26    1
    22    25    27    1
    23    19    20   ar
    24    11    12   ar
    25    12    13   ar
    26    13    14   ar
    27     3     4   ar
    28     4     5   ar
    29     5    28    1
    30    28    29   am
    31    28    30    2
    32    35    36    1
    33    36    37   ar
    34    37    38   ar
    35    38    39   ar
    36    39    40   ar
    37    40    41   ar
    38    41    42    1
    39    42    43    1
    40    42    44    1
    41    42    45    1
    42     5     1   ar
    43    41    36   ar
    44    14     6   ar
    45    14     9   ar
    46    20    15   ar
    47    21    22    1
    48    29    31    1
    49    29    32    1
@<TRIPOS>MOLECULE
*****
 45 49 0 0 0
SMALL
GASTEIGER

@<TRIPOS>ATOM
      1 C          62.8242   85.7572   13.0531 C.ar    1  UNL1        0.1512
      2 C          62.0933   85.2593   11.8415 C.ar    1  UNL1        0.0619
      3 C          61.9663   86.3998   10.8755 C.ar    1  UNL1        0.0987
      4 S          62.6187   87.6026   11.4900 S.2     1  UNL1       -0.0618
      5 C          63.1490   87.2054   12.8358 C.ar    1  UNL1        0.1178
      6 N          61.3033   86.3468    9.5310 N.ar    1  UNL1       -0.2823
      7 C          61.1061   85.1184    8.6930 C.ar    1  UNL1        0.1831
      8 N          60.4020   85.5254    7.4326 N.ar    1  UNL1       -0.2236
      9 C          60.1641   87.0053    7.4916 C.ar    1  UNL1        0.0991
     10 C          59.5122   87.9561    6.5320 C.ar    1  UNL1        0.0206
     11 C          59.4174   89.4146    6.8693 C.ar    1  UNL1        0.0017
     12 C          59.9745   89.9222    8.1662 C.ar    1  UNL1        0.0016
     13 C          60.6263   88.9714    9.1258 C.ar    1  UNL1        0.0191
     14 C          60.7212   87.5129    8.7885 C.ar    1  UNL1        0.0835
     15 C          58.7655   90.3655    5.9096 C.ar    1  UNL1        0.0044
     16 C          57.2704   90.4102    5.7973 C.ar    1  UNL1        0.0208
     17 C          56.6185   91.3610    4.8377 C.ar    1  UNL1        0.1003
     18 N          57.4617   92.2673    3.9904 N.ar    1  UNL1       -0.2294
     19 C          58.9568   92.2226    4.1028 C.ar    1  UNL1        0.1285
     20 C          59.6087   91.2717    5.0624 C.ar    1  UNL1        0.0341
     21 N          59.8000   93.1287    3.2556 N.pl3   1  UNL1       -0.3169
     22 H          60.3965   93.7864    3.6810 H       1  UNL1        0.1482
     23 C          59.7345   93.0329    1.7601 C.3     1  UNL1        0.1057
     24 C          60.9962   92.8880    0.9618 C.3     1  UNL1        0.0936
     25 N          62.3136   93.2771    1.5641 N.3     1  UNL1       -0.2689
     26 C          62.8192   94.6818    1.4184 C.3     1  UNL1        0.0897
     27 C          63.1256   92.2616    2.3120 C.3     1  UNL1        0.0897
     28 C          63.8763   88.0996   13.7959 C.2     1  UNL1        0.2518
     29 N          64.2693   87.5854   15.1490 N.am    1  UNL1       -0.3248
     30 O          64.2105   89.5081   13.4027 O.2     1  UNL1       -0.2697
     31 H          64.0499   86.6610   15.4071 H       1  UNL1        0.1453
     32 H          64.7466   88.1722   15.7791 H       1  UNL1        0.1453
     33 O          63.1697   84.9489   14.2684 O.3     1  UNL1       -0.4740
     34 C          64.6236   83.0471   15.2782 C.3     1  UNL1        0.0523
     35 C          63.8737   83.6328   14.1186 C.3     1  UNL1        0.1882
     36 C          63.8277   82.9024   12.8093 C.ar    1  UNL1        0.0211
     37 C          64.7162   83.3315   11.6795 C.ar    1  UNL1       -0.0009
     38 C          64.6703   82.6011   10.3702 C.ar    1  UNL1       -0.0002
     39 C          63.7357   81.4417   10.1906 C.ar    1  UNL1       -0.0001
     40 C          62.8472   81.0126   11.3203 C.ar    1  UNL1        0.0036
     41 C          62.8931   81.7430   12.6297 C.ar    1  UNL1        0.0708
     42 C          62.0046   81.3139   13.7594 C.3     1  UNL1        0.4184
     43 F          61.1160   80.8848   14.8892 F       1  UNL1       -0.1659
     44 F          61.2736   82.6214   13.6811 F       1  UNL1       -0.1659
     45 F          62.7355   80.0064   13.8378 F       1  UNL1       -0.1659
@<TRIPOS>BOND
     1    35    34    1
     2    35    33    1
     3    33     1    1
     4     1     2   ar
     5     2     3   ar
     6     3     6    1
     7     6     7   ar
     8     7     8   ar
     9     8     9   ar
    10     9    10   ar
    11    10    11   ar
    12    11    15    1
    13    15    16   ar
    14    16    17   ar
    15    17    18   ar
    16    18    19   ar
    17    19    21    1
    18    21    23    1
    19    23    24    1
    20    24    25    1
    21    25    26    1
    22    25    27    1
    23    19    20   ar
    24    11    12   ar
    25    12    13   ar
    26    13    14   ar
    27     3     4   ar
    28     4     5   ar
    29     5    28    1
    30    28    29   am
    31    28    30    2
    32    35    36    1
    33    36    37   ar
    34    37    38   ar
    35    38    39   ar
    36    39    40   ar
    37    40    41   ar
    38    41    42    1
    39    42    43    1
    40    42    44    1
    41    42    45    1
    42     5     1   ar
    43    41    36   ar
    44    14     6   ar
    45    14     9   ar
    46    20    15   ar
    47    21    22    1
    48    29    31    1
    49    29    32    1
@<TRIPOS>MOLECULE
*****
 45 49 0 0 0
SMALL
GASTEIGER

@<TRIPOS>ATOM
      1 C          63.6257   86.8514   13.3903 C.ar    1  UNL1        0.1512
      2 C          62.9122   86.1593   12.2669 C.ar    1  UNL1        0.0619
      3 C          62.3636   87.2107   11.3486 C.ar    1  UNL1        0.0987
      4 S          62.7379   88.5528   11.9044 S.2     1  UNL1       -0.0618
      5 C          63.5179   88.3307   13.1662 C.ar    1  UNL1        0.1178
      6 N          61.5785   86.9637   10.0945 N.ar    1  UNL1       -0.2823
      7 C          61.2656   85.6225    9.5001 C.ar    1  UNL1        0.1831
      8 N          60.4621   85.8444    8.2530 N.ar    1  UNL1       -0.2236
      9 C          60.2785   87.3226    8.0767 C.ar    1  UNL1        0.0991
     10 C          59.5722   88.1281    7.0269 C.ar    1  UNL1        0.0206
     11 C          59.5558   89.6254    7.1152 C.ar    1  UNL1        0.0017
     12 C          60.2457   90.3172    8.2533 C.ar    1  UNL1        0.0016
     13 C          60.9521   89.5117    9.3032 C.ar    1  UNL1        0.0191
     14 C          60.9684   88.0144    9.2149 C.ar    1  UNL1        0.0835
     15 C          58.8494   90.4310    6.0653 C.ar    1  UNL1        0.0044
     16 C          57.3626   90.3145    5.9046 C.ar    1  UNL1        0.0208
     17 C          56.6563   91.1200    4.8548 C.ar    1  UNL1        0.1003
     18 N          57.4367   92.0421    3.9656 N.ar    1  UNL1       -0.2294
     19 C          58.9236   92.1586    4.1263 C.ar    1  UNL1        0.1285
     20 C          59.6299   91.3530    5.1761 C.ar    1  UNL1        0.0341
     21 N          59.7040   93.0807    3.2371 N.pl3   1  UNL1       -0.3169
     22 H          60.1607   93.8643    3.6201 H       1  UNL1        0.1482
     23 C          59.7887   92.8089    1.7644 C.3     1  UNL1        0.1057
     24 C          61.1005   92.4243    1.1469 C.3     1  UNL1        0.0936
     25 N          62.3810   92.6831    1.8839 N.3     1  UNL1       -0.2689
     26 C          62.9471   91.6345    2.7949 C.3     1  UNL1        0.0897
     27 C          63.0953   93.9906    1.7101 C.3     1  UNL1        0.0897
     28 C          64.0897   89.4001   14.0491 C.2     1  UNL1        0.2518
     29 N          63.8971   89.3286   15.5349 N.am    1  UNL1       -0.3248
     30 O          64.8543   90.5411   13.4460 O.2     1  UNL1       -0.2697
     31 H          63.3953   88.5798   15.9307 H       1  UNL1        0.1453
     32 H          64.2724   90.0305   16.1143 H       1  UNL1        0.1453
     33 O          64.3241   86.1819   14.5365 O.3     1  UNL1       -0.4740
     34 C          66.4399   84.6743   14.5096 C.3     1  UNL1        0.0523
     35 C          64.9576   84.8357   14.3456 C.3     1  UNL1        0.1882
     36 C          64.1089   83.6509   13.9906 C.ar    1  UNL1        0.0211
     37 C          64.5316   82.7299   12.8846 C.ar    1  UNL1       -0.0009
     38 C          63.6829   81.5452   12.5297 C.ar    1  UNL1       -0.0002
     39 C          62.4115   81.2814   13.2806 C.ar    1  UNL1       -0.0001
     40 C          61.9888   82.2024   14.3864 C.ar    1  UNL1        0.0036
     41 C          62.8375   83.3872   14.7415 C.ar    1  UNL1        0.0708
     42 C          62.4148   84.3082   15.8474 C.3     1  UNL1        0.4184
     43 F          61.9921   85.2292   16.9533 F       1  UNL1       -0.1659
     44 F          63.5788   83.8491   16.6746 F       1  UNL1       -0.1659
     45 F          61.2508   84.7673   15.0202 F       1  UNL1       -0.1659
@<TRIPOS>BOND
     1    35    34    1
     2    35    33    1
     3    33     1    1
     4     1     2   ar
     5     2     3   ar
     6     3     6    1
     7     6     7   ar
     8     7     8   ar
     9     8     9   ar
    10     9    10   ar
    11    10    11   ar
    12    11    15    1
    13    15    16   ar
    14    16    17   ar
    15    17    18   ar
    16    18    19   ar
    17    19    21    1
    18    21    23    1
    19    23    24    1
    20    24    25    1
    21    25    26    1
    22    25    27    1
    23    19    20   ar
    24    11    12   ar
    25    12    13   ar
    26    13    14   ar
    27     3     4   ar
    28     4     5   ar
    29     5    28    1
    30    28    29   am
    31    28    30    2
    32    35    36    1
    33    36    37   ar
    34    37    38   ar
    35    38    39   ar
    36    39    40   ar
    37    40    41   ar
    38    41    42    1
    39    42    43    1
    40    42    44    1
    41    42    45    1
    42     5     1   ar
    43    41    36   ar
    44    14     6   ar
    45    14     9   ar
    46    20    15   ar
    47    21    22    1
    48    29    31    1
    49    29    32    1
@<TRIPOS>MOLECULE
*****
 45 49 0 0 0
SMALL
GASTEIGER

@<TRIPOS>ATOM
      1 C          62.4815   83.6594   12.9372 C.ar    1  UNL1        0.1512
      2 C          62.7739   85.0736   13.3432 C.ar    1  UNL1        0.0619
      3 C          62.7457   85.1410   14.8414 C.ar    1  UNL1        0.0987
      4 S          62.4360   83.7685   15.3614 S.2     1  UNL1       -0.0618
      5 C          62.2727   82.8529   14.1846 C.ar    1  UNL1        0.1178
      6 N          62.9853   86.3658   15.6735 N.ar    1  UNL1       -0.2823
      7 C          62.5792   86.5521   17.1055 C.ar    1  UNL1        0.1831
      8 N          63.0159   87.9208   17.5367 N.ar    1  UNL1       -0.2236
      9 C          63.6919   88.5804   16.3713 C.ar    1  UNL1        0.0991
     10 C          64.3222   89.9319   16.2099 C.ar    1  UNL1        0.0206
     11 C          64.9335   90.3224   14.8970 C.ar    1  UNL1        0.0017
     12 C          64.9145   89.3613   13.7455 C.ar    1  UNL1        0.0016
     13 C          64.2842   88.0098   13.9069 C.ar    1  UNL1        0.0191
     14 C          63.6729   87.6193   15.2198 C.ar    1  UNL1        0.0835
     15 C          65.5638   91.6739   14.7356 C.ar    1  UNL1        0.0044
     16 C          66.3217   92.2889   15.8747 C.ar    1  UNL1        0.0208
     17 C          66.9520   93.6404   15.7133 C.ar    1  UNL1        0.1003
     18 N          66.8245   94.3770   14.4128 N.ar    1  UNL1       -0.2294
     19 C          66.0666   93.7621   13.2737 C.ar    1  UNL1        0.1285
     20 C          65.4363   92.4105   13.4352 C.ar    1  UNL1        0.0341
     21 N          65.9390   94.4986   11.9733 N.pl3   1  UNL1       -0.3169
     22 H          66.0771   95.4729   11.9438 H       1  UNL1        0.1482
     23 C          65.6011   93.7506   10.7178 C.3     1  UNL1        0.1057
     24 C          66.5936   92.7959   10.1233 C.3     1  UNL1        0.0936
     25 N          67.7451   93.3173    9.3158 N.3     1  UNL1       -0.2689
     26 C          67.7491   94.7428    8.8491 C.3     1  UNL1        0.0897
     27 C          68.8926   92.4133    8.9751 C.3     1  UNL1        0.0897
     28 C          61.9562   81.3878   14.2446 C.2     1  UNL1        0.2518
     29 N          63.0648   80.3785   14.1988 N.am    1  UNL1       -0.3248
     30 O          60.5310   80.9322   14.3503 O.2     1  UNL1       -0.2697
     31 H          64.0002   80.6776   14.1294 H       1  UNL1        0.1453
     32 H          62.8571   79.4170   14.2382 H       1  UNL1        0.1453
     33 O          62.4105   83.1427   11.5309 O.3     1  UNL1       -0.4740
     34 C          63.9633   83.6577    9.5127 C.3     1  UNL1        0.0523
     35 C          62.8013   84.0289   10.3855 C.3     1  UNL1        0.1882
     36 C          62.0301   85.2862   10.1130 C.ar    1  UNL1        0.0211
     37 C          61.3944   86.0365   11.2457 C.ar    1  UNL1       -0.0009
     38 C          60.6232   87.2939   10.9732 C.ar    1  UNL1       -0.0002
     39 C          60.4876   87.8009    9.5680 C.ar    1  UNL1       -0.0001
     40 C          61.1233   87.0507    8.4354 C.ar    1  UNL1        0.0036
     41 C          61.8945   85.7933    8.7079 C.ar    1  UNL1        0.0708
     42 C          62.5302   85.0430    7.5752 C.3     1  UNL1        0.4184
     43 F          63.1658   84.2927    6.4425 F       1  UNL1       -0.1659
     44 F          61.2288   84.3476    7.3055 F       1  UNL1       -0.1659
     45 F          63.8316   85.7384    7.8448 F       1  UNL1       -0.1659
@<TRIPOS>BOND
     1    35    34    1
     2    35    33    1
     3    33     1    1
     4     1     2   ar
     5     2     3   ar
     6     3     6    1
     7     6     7   ar
     8     7     8   ar
     9     8     9   ar
    10     9    10   ar
    11    10    11   ar
    12    11    15    1
    13    15    16   ar
    14    16    17   ar
    15    17    18   ar
    16    18    19   ar
    17    19    21    1
    18    21    23    1
    19    23    24    1
    20    24    25    1
    21    25    26    1
    22    25    27    1
    23    19    20   ar
    24    11    12   ar
    25    12    13   ar
    26    13    14   ar
    27     3     4   ar
    28     4     5   ar
    29     5    28    1
    30    28    29   am
    31    28    30    2
    32    35    36    1
    33    36    37   ar
    34    37    38   ar
    35    38    39   ar
    36    39    40   ar
    37    40    41   ar
    38    41    42    1
    39    42    43    1
    40    42    44    1
    41    42    45    1
    42     5     1   ar
    43    41    36   ar
    44    14     6   ar
    45    14     9   ar
    46    20    15   ar
    47    21    22    1
    48    29    31    1
    49    29    32    1
@<TRIPOS>MOLECULE
*****
 45 49 0 0 0
SMALL
GASTEIGER

@<TRIPOS>ATOM
      1 C          59.6370   90.6134    5.2089 C.ar    1  UNL1        0.1512
      2 C          60.5849   90.1624    6.2805 C.ar    1  UNL1        0.0619
      3 C          59.7856   89.8815    7.5183 C.ar    1  UNL1        0.0987
      4 S          58.3437   90.1589    7.2118 S.2     1  UNL1       -0.0618
      5 C          58.2519   90.6112    5.7846 C.ar    1  UNL1        0.1178
      6 N          60.3322   89.4067    8.8319 N.ar    1  UNL1       -0.2823
      7 C          60.3543   90.1882   10.1120 C.ar    1  UNL1        0.1831
      8 N          60.9884   89.3314   11.1673 N.ar    1  UNL1       -0.2236
      9 C          61.3583   88.0203   10.5395 C.ar    1  UNL1        0.0991
     10 C          62.0120   86.7901   11.0956 C.ar    1  UNL1        0.0206
     11 C          62.2602   85.6065   10.2083 C.ar    1  UNL1        0.0017
     12 C          61.8546   85.6530    8.7650 C.ar    1  UNL1        0.0016
     13 C          61.2009   86.8831    8.2088 C.ar    1  UNL1        0.0191
     14 C          60.9528   88.0668    9.0961 C.ar    1  UNL1        0.0835
     15 C          62.9139   84.3762   10.7644 C.ar    1  UNL1        0.0044
     16 C          63.7613   83.5117    9.8787 C.ar    1  UNL1        0.0208
     17 C          64.4151   82.2815   10.4347 C.ar    1  UNL1        0.1003
     18 N          64.2214   81.9158   11.8766 N.ar    1  UNL1       -0.2294
     19 C          63.3739   82.7802   12.7623 C.ar    1  UNL1        0.1285
     20 C          62.7202   84.0105   12.2062 C.ar    1  UNL1        0.0341
     21 N          63.1802   82.4145   14.2040 N.pl3   1  UNL1       -0.3169
     22 H          62.7864   81.5443   14.4425 H       1  UNL1        0.1482
     23 C          63.5864   83.3747   15.2824 C.3     1  UNL1        0.1057
     24 C          62.6444   84.4590   15.7150 C.3     1  UNL1        0.0936
     25 N          63.1804   85.7984   16.1257 N.3     1  UNL1       -0.2689
     26 C          62.7162   86.4322   17.4035 C.3     1  UNL1        0.0897
     27 C          64.1806   86.5040   15.2587 C.3     1  UNL1        0.0897
     28 C          56.9954   90.9941    5.0601 C.2     1  UNL1        0.2518
     29 N          57.0678   91.8693    3.8441 N.am    1  UNL1       -0.3248
     30 O          55.6665   90.5017    5.5517 O.2     1  UNL1       -0.2697
     31 H          57.9400   92.1925    3.5215 H       1  UNL1        0.1453
     32 H          56.2432   92.1206    3.3687 H       1  UNL1        0.1453
     33 O          60.0090   90.9988    3.8079 O.3     1  UNL1       -0.4740
     34 C          59.7131   93.5489    4.2075 C.3     1  UNL1        0.0523
     35 C          60.3908   92.4155    3.4960 C.3     1  UNL1        0.1882
     36 C          61.4504   92.6987    2.4728 C.ar    1  UNL1        0.0211
     37 C          62.8996   92.5770    2.8403 C.ar    1  UNL1       -0.0009
     38 C          63.9591   92.8603    1.8170 C.ar    1  UNL1       -0.0002
     39 C          63.5695   93.2652    0.4262 C.ar    1  UNL1       -0.0001
     40 C          62.1204   93.3868    0.0587 C.ar    1  UNL1        0.0036
     41 C          61.0608   93.1036    1.0820 C.ar    1  UNL1        0.0708
     42 C          59.6117   93.2253    0.7145 C.3     1  UNL1        0.4184
     43 F          58.1624   93.3469    0.3470 F       1  UNL1       -0.1659
     44 F          59.6212   91.8130    0.2092 F       1  UNL1       -0.1659
     45 F          59.6020   94.6375    1.2198 F       1  UNL1       -0.1659
@<TRIPOS>BOND
     1    35    34    1
     2    35    33    1
     3    33     1    1
     4     1     2   ar
     5     2     3   ar
     6     3     6    1
     7     6     7   ar
     8     7     8   ar
     9     8     9   ar
    10     9    10   ar
    11    10    11   ar
    12    11    15    1
    13    15    16   ar
    14    16    17   ar
    15    17    18   ar
    16    18    19   ar
    17    19    21    1
    18    21    23    1
    19    23    24    1
    20    24    25    1
    21    25    26    1
    22    25    27    1
    23    19    20   ar
    24    11    12   ar
    25    12    13   ar
    26    13    14   ar
    27     3     4   ar
    28     4     5   ar
    29     5    28    1
    30    28    29   am
    31    28    30    2
    32    35    36    1
    33    36    37   ar
    34    37    38   ar
    35    38    39   ar
    36    39    40   ar
    37    40    41   ar
    38    41    42    1
    39    42    43    1
    40    42    44    1
    41    42    45    1
    42     5     1   ar
    43    41    36   ar
    44    14     6   ar
    45    14     9   ar
    46    20    15   ar
    47    21    22    1
    48    29    31    1
    49    29    32    1
@<TRIPOS>MOLECULE
*****
 45 49 0 0 0
SMALL
GASTEIGER

@<TRIPOS>ATOM
      1 C          62.0163   95.9043   -3.4099 C.ar    1  UNL1        0.1512
      2 C          61.8716   95.5408   -1.9618 C.ar    1  UNL1        0.0619
      3 C          62.9543   94.5610   -1.6192 C.ar    1  UNL1        0.0987
      4 S          63.7684   94.3188   -2.8557 S.2     1  UNL1       -0.0618
      5 C          63.1886   95.1490   -3.9623 C.ar    1  UNL1        0.1178
      6 N          63.1830   93.9334   -0.2761 N.ar    1  UNL1       -0.2823
      7 C          64.5151   93.7001    0.3727 C.ar    1  UNL1        0.1831
      8 N          64.2751   93.0515    1.7037 N.ar    1  UNL1       -0.2236
      9 C          62.7947   92.8839    1.8775 C.ar    1  UNL1        0.0991
     10 C          61.9740   92.3054    2.9919 C.ar    1  UNL1        0.0206
     11 C          60.4784   92.2720    2.8826 C.ar    1  UNL1        0.0017
     12 C          59.8034   92.8171    1.6589 C.ar    1  UNL1        0.0016
     13 C          60.6241   93.3955    0.5446 C.ar    1  UNL1        0.0191
     14 C          62.1197   93.4290    0.6539 C.ar    1  UNL1        0.0835
     15 C          59.6577   91.6935    3.9970 C.ar    1  UNL1        0.0044
     16 C          58.1879   91.9830    4.0743 C.ar    1  UNL1        0.0208
     17 C          57.3672   91.4045    5.1886 C.ar    1  UNL1        0.1003
     18 N          58.0162   90.5365    6.2257 N.ar    1  UNL1       -0.2294
     19 C          59.4860   90.2470    6.1483 C.ar    1  UNL1        0.1285
     20 C          60.3067   90.8256    5.0339 C.ar    1  UNL1        0.0341
     21 N          60.1350   89.3791    7.1853 N.pl3   1  UNL1       -0.3169
     22 H          61.0663   89.5483    7.4561 H       1  UNL1        0.1482
     23 C          59.3651   88.2534    7.8098 C.3     1  UNL1        0.1057
     24 C          60.0562   86.9628    8.1369 C.3     1  UNL1        0.0936
     25 N          61.0273   86.9005    9.2784 N.3     1  UNL1       -0.2689
     26 C          60.7333   87.6326   10.5540 C.3     1  UNL1        0.0897
     27 C          62.2926   86.1060    9.1441 C.3     1  UNL1        0.0897
     28 C          63.6927   95.2127   -5.3737 C.2     1  UNL1        0.2518
     29 N          63.0706   96.1665   -6.3500 N.am    1  UNL1       -0.3248
     30 O          64.8190   94.3226   -5.8087 O.2     1  UNL1       -0.2697
     31 H          62.3314   96.7507   -6.0644 H       1  UNL1        0.1453
     32 H          63.4014   96.2083   -7.2763 H       1  UNL1        0.1453
     33 O          61.1422   96.8559   -4.1717 O.3     1  UNL1       -0.4740
     34 C          59.0289   96.7835   -5.6812 C.3     1  UNL1        0.0523
     35 C          59.6838   96.5548   -4.3512 C.3     1  UNL1        0.1882
     36 C          58.8802   96.0249   -3.2008 C.ar    1  UNL1        0.0211
     37 C          58.7027   96.8554   -1.9643 C.ar    1  UNL1       -0.0009
     38 C          57.8992   96.3255   -0.8139 C.ar    1  UNL1       -0.0002
     39 C          57.2731   94.9651   -0.8999 C.ar    1  UNL1       -0.0001
     40 C          57.4506   94.1347   -2.1363 C.ar    1  UNL1        0.0036
     41 C          58.2542   94.6645   -3.2868 C.ar    1  UNL1        0.0708
     42 C          58.4316   93.8341   -4.5232 C.3     1  UNL1        0.4184
     43 F          58.6091   93.0035   -5.7597 F       1  UNL1       -0.1659
     44 F          56.9992   94.0802   -4.8941 F       1  UNL1       -0.1659
     45 F          59.8640   93.5879   -4.1523 F       1  UNL1       -0.1659
@<TRIPOS>BOND
     1    35    34    1
     2    35    33    1
     3    33     1    1
     4     1     2   ar
     5     2     3   ar
     6     3     6    1
     7     6     7   ar
     8     7     8   ar
     9     8     9   ar
    10     9    10   ar
    11    10    11   ar
    12    11    15    1
    13    15    16   ar
    14    16    17   ar
    15    17    18   ar
    16    18    19   ar
    17    19    21    1
    18    21    23    1
    19    23    24    1
    20    24    25    1
    21    25    26    1
    22    25    27    1
    23    19    20   ar
    24    11    12   ar
    25    12    13   ar
    26    13    14   ar
    27     3     4   ar
    28     4     5   ar
    29     5    28    1
    30    28    29   am
    31    28    30    2
    32    35    36    1
    33    36    37   ar
    34    37    38   ar
    35    38    39   ar
    36    39    40   ar
    37    40    41   ar
    38    41    42    1
    39    42    43    1
    40    42    44    1
    41    42    45    1
    42     5     1   ar
    43    41    36   ar
    44    14     6   ar
    45    14     9   ar
    46    20    15   ar
    47    21    22    1
    48    29    31    1
    49    29    32    1
