@<TRIPOS>MOLECULE
*****
 19 19 0 0 0
SMALL
GASTEIGER

@<TRIPOS>ATOM
      1 C          62.8460   84.5877   11.8980 C.2     1  UNL1        0.2227
      2 O          62.4008   84.9274   13.2896 O.2     1  UNL1       -0.2751
      3 N          62.3584   85.4002   10.7352 N.am    1  UNL1       -0.3004
      4 H          62.6505   85.1773    9.8219 H       1  UNL1        0.1497
      5 C          63.7788   83.4355   11.6693 C.3     1  UNL1        0.0851
      6 C          63.2283   82.0597   11.4367 C.3     1  UNL1        0.0096
      7 C          63.3617   81.0091   12.4991 C.3     1  UNL1        0.0019
      8 C          62.1538   80.5629   13.2684 C.3     1  UNL1        0.0169
      9 N          62.4299   82.4118   15.0727 N.3     1  UNL1       -0.3211
     10 C          61.5558   81.4595   14.3118 C.3     1  UNL1        0.0651
     11 H          61.8618   82.9389   15.7359 H       1  UNL1        0.1189
     12 H          62.8780   83.0563   14.4214 H       1  UNL1        0.1189
     13 C          61.4256   86.5524   10.9640 C.3     1  UNL1        0.1179
     14 C          60.7308   87.1971    9.8014 C.ar    1  UNL1        0.0166
     15 C          60.0708   86.3469    8.7567 C.ar    1  UNL1        0.0005
     16 C          59.3760   86.9917    7.5941 C.ar    1  UNL1        0.0204
     17 C          59.3412   88.4866    7.4762 C.ar    1  UNL1        0.0989
     18 N          60.0013   89.3368    8.5209 N.ar    1  UNL1       -0.2426
     19 C          60.6961   88.6921    9.6835 C.ar    1  UNL1        0.0962
@<TRIPOS>BOND
     1     9    10    1
     2    10     8    1
     3     8     7    1
     4     7     6    1
     5     6     5    1
     6     5     1    1
     7     1     2    2
     8     1     3   am
     9     3    13    1
    10    13    14    1
    11    14    15   ar
    12    15    16   ar
    13    16    17   ar
    14    17    18   ar
    15    18    19   ar
    16    19    14   ar
    17     9    11    1
    18     9    12    1
    19     3     4    1
@<TRIPOS>MOLECULE
*****
 19 19 0 0 0
SMALL
GASTEIGER

@<TRIPOS>ATOM
      1 C          63.0460   83.5633   15.2197 C.2     1  UNL1        0.2227
      2 O          64.4496   83.1086   15.4900 O.2     1  UNL1       -0.2751
      3 N          62.6021   84.9275   15.6579 N.am    1  UNL1       -0.3004
      4 H          61.6808   85.2259   15.4805 H       1  UNL1        0.1497
      5 C          62.0863   82.6539   14.5112 C.3     1  UNL1        0.0851
      6 C          62.5767   81.7503   13.4190 C.3     1  UNL1        0.0096
      7 C          62.5421   82.2114   11.9920 C.3     1  UNL1        0.0019
      8 C          63.3768   83.3808   11.5613 C.3     1  UNL1        0.0169
      9 N          62.2527   85.5542   12.4349 N.3     1  UNL1       -0.3211
     10 C          62.7285   84.7066   11.2924 C.3     1  UNL1        0.0651
     11 H          61.8411   86.4140   12.0720 H       1  UNL1        0.1189
     12 H          63.0415   85.7837   13.0395 H       1  UNL1        0.1189
     13 C          63.5617   85.8369   16.3664 C.3     1  UNL1        0.1179
     14 C          63.6401   87.2862   15.9878 C.ar    1  UNL1        0.0166
     15 C          64.3021   87.6913   14.7043 C.ar    1  UNL1        0.0005
     16 C          64.3804   89.1407   14.3256 C.ar    1  UNL1        0.0204
     17 C          63.7968   90.1848   15.2306 C.ar    1  UNL1        0.0989
     18 N          63.1348   89.7797   16.5141 N.ar    1  UNL1       -0.2426
     19 C          63.0564   88.3304   16.8927 C.ar    1  UNL1        0.0962
@<TRIPOS>BOND
     1     9    10    1
     2    10     8    1
     3     8     7    1
     4     7     6    1
     5     6     5    1
     6     5     1    1
     7     1     2    2
     8     1     3   am
     9     3    13    1
    10    13    14    1
    11    14    15   ar
    12    15    16   ar
    13    16    17   ar
    14    17    18   ar
    15    18    19   ar
    16    19    14   ar
    17     9    11    1
    18     9    12    1
    19     3     4    1
@<TRIPOS>MOLECULE
*****
 19 19 0 0 0
SMALL
GASTEIGER

@<TRIPOS>ATOM
      1 C          63.6659   83.6785   10.4040 C.2     1  UNL1        0.2227
      2 O          64.8663   82.8262   10.6912 O.2     1  UNL1       -0.2751
      3 N          62.6471   83.9250   11.4769 N.am    1  UNL1       -0.3004
      4 H          61.8592   84.4844   11.2885 H       1  UNL1        0.1497
      5 C          63.4843   84.2845    9.0438 C.3     1  UNL1        0.0851
      6 C          62.8006   85.6117    8.8993 C.3     1  UNL1        0.0096
      7 C          61.5642   85.7309    8.0585 C.3     1  UNL1        0.0019
      8 C          60.4548   86.6474    8.4817 C.3     1  UNL1        0.0169
      9 N          58.5558   88.0063    7.3428 N.3     1  UNL1       -0.3211
     10 C          59.1756   86.6877    7.6993 C.3     1  UNL1        0.0651
     11 H          57.6977   87.8470    6.8147 H       1  UNL1        0.1189
     12 H          59.2088   88.5467    6.7754 H       1  UNL1        0.1189
     13 C          62.8286   83.3191   12.8370 C.3     1  UNL1        0.1179
     14 C          63.0447   84.2034   14.0293 C.ar    1  UNL1        0.0166
     15 C          64.2241   85.1292   14.0725 C.ar    1  UNL1        0.0005
     16 C          64.4402   86.0134   15.2647 C.ar    1  UNL1        0.0204
     17 C          63.4769   85.9719   16.4137 C.ar    1  UNL1        0.0989
     18 N          62.2975   85.0461   16.3705 N.ar    1  UNL1       -0.2426
     19 C          62.0814   84.1619   15.1783 C.ar    1  UNL1        0.0962
@<TRIPOS>BOND
     1     9    10    1
     2    10     8    1
     3     8     7    1
     4     7     6    1
     5     6     5    1
     6     5     1    1
     7     1     2    2
     8     1     3   am
     9     3    13    1
    10    13    14    1
    11    14    15   ar
    12    15    16   ar
    13    16    17   ar
    14    17    18   ar
    15    18    19   ar
    16    19    14   ar
    17     9    11    1
    18     9    12    1
    19     3     4    1
@<TRIPOS>MOLECULE
*****
 19 19 0 0 0
SMALL
GASTEIGER

@<TRIPOS>ATOM
      1 C          61.9756   85.9151   11.0251 C.2     1  UNL1        0.2227
      2 O          62.7438   85.2074    9.9486 O.2     1  UNL1       -0.2751
      3 N          62.2704   85.6300   12.4680 N.am    1  UNL1       -0.3004
      4 H          61.7661   86.0946   13.1745 H       1  UNL1        0.1497
      5 C          60.9125   86.9080   10.6588 C.3     1  UNL1        0.0851
      6 C          61.2520   88.0854    9.7935 C.3     1  UNL1        0.0096
      7 C          60.1687   88.8018    9.0431 C.3     1  UNL1        0.0019
      8 C          59.6406   88.2303    7.7608 C.3     1  UNL1        0.0169
      9 N          59.7587   85.6624    7.3844 N.3     1  UNL1       -0.3211
     10 C          58.9751   86.8860    7.7567 C.3     1  UNL1        0.0651
     11 H          59.1536   84.8428    7.4347 H       1  UNL1        0.1189
     12 H          60.5394   85.5489    8.0309 H       1  UNL1        0.1189
     13 C          63.3334   84.6372   12.8343 C.3     1  UNL1        0.1179
     14 C          62.9771   83.1925   13.0238 C.ar    1  UNL1        0.0166
     15 C          63.1745   82.2179   11.9008 C.ar    1  UNL1        0.0005
     16 C          62.8182   80.7732   12.0902 C.ar    1  UNL1        0.0204
     17 C          62.2646   80.3031   13.4027 C.ar    1  UNL1        0.0989
     18 N          62.0672   81.2777   14.5256 N.ar    1  UNL1       -0.2426
     19 C          62.4235   82.7225   14.3362 C.ar    1  UNL1        0.0962
@<TRIPOS>BOND
     1     9    10    1
     2    10     8    1
     3     8     7    1
     4     7     6    1
     5     6     5    1
     6     5     1    1
     7     1     2    2
     8     1     3   am
     9     3    13    1
    10    13    14    1
    11    14    15   ar
    12    15    16   ar
    13    16    17   ar
    14    17    18   ar
    15    18    19   ar
    16    19    14   ar
    17     9    11    1
    18     9    12    1
    19     3     4    1
@<TRIPOS>MOLECULE
*****
 19 19 0 0 0
SMALL
GASTEIGER

@<TRIPOS>ATOM
      1 C          63.8477   82.6911   13.4155 C.2     1  UNL1        0.2227
      2 O          63.2530   81.7505   14.4212 O.2     1  UNL1       -0.2751
      3 N          64.3679   84.0277   13.8546 N.am    1  UNL1       -0.3004
      4 H          64.7583   84.6451   13.1945 H       1  UNL1        0.1497
      5 C          63.9221   82.2952   11.9705 C.3     1  UNL1        0.0851
      6 C          64.2318   83.3258   10.9255 C.3     1  UNL1        0.0096
      7 C          63.1278   84.1550   10.3395 C.3     1  UNL1        0.0019
      8 C          62.4768   85.2267   11.1627 C.3     1  UNL1        0.0169
      9 N          60.6852   87.0912   11.4156 N.3     1  UNL1       -0.3211
     10 C          61.3818   86.0648   10.5722 C.3     1  UNL1        0.0651
     11 H          59.9745   87.5643   10.8575 H       1  UNL1        0.1189
     12 H          61.3649   87.7741   11.7505 H       1  UNL1        0.1189
     13 C          64.2935   84.4237   15.2995 C.3     1  UNL1        0.1179
     14 C          63.9416   85.8329   15.6738 C.ar    1  UNL1        0.0166
     15 C          63.2206   86.1096   16.9597 C.ar    1  UNL1        0.0005
     16 C          62.8687   87.5189   17.3340 C.ar    1  UNL1        0.0204
     17 C          63.2377   88.6515   16.4224 C.ar    1  UNL1        0.0989
     18 N          63.9587   88.3748   15.1365 N.ar    1  UNL1       -0.2426
     19 C          64.3106   86.9655   14.7622 C.ar    1  UNL1        0.0962
@<TRIPOS>BOND
     1     9    10    1
     2    10     8    1
     3     8     7    1
     4     7     6    1
     5     6     5    1
     6     5     1    1
     7     1     2    2
     8     1     3   am
     9     3    13    1
    10    13    14    1
    11    14    15   ar
    12    15    16   ar
    13    16    17   ar
    14    17    18   ar
    15    18    19   ar
    16    19    14   ar
    17     9    11    1
    18     9    12    1
    19     3     4    1
@<TRIPOS>MOLECULE
*****
 19 19 0 0 0
SMALL
GASTEIGER

@<TRIPOS>ATOM
      1 C          62.2812   86.6702   10.8438 C.2     1  UNL1        0.2227
      2 O          62.5651   87.6685   11.9267 O.2     1  UNL1       -0.2751
      3 N          62.3566   85.2015   11.1391 N.am    1  UNL1       -0.3004
      4 H          62.1703   84.5463   10.4283 H       1  UNL1        0.1497
      5 C          61.9220   87.1406    9.4654 C.3     1  UNL1        0.0851
      6 C          60.5044   87.5122    9.1455 C.3     1  UNL1        0.0096
      7 C          60.1209   88.9555    9.0050 C.3     1  UNL1        0.0019
      8 C          60.5573   89.9515   10.0382 C.3     1  UNL1        0.0169
      9 N          60.5569   89.7523   12.6287 N.3     1  UNL1       -0.3211
     10 C          59.8313   90.0405   11.3479 C.3     1  UNL1        0.0651
     11 H          59.9154   89.8596   13.4144 H       1  UNL1        0.1189
     12 H          61.3344   90.4042   12.7331 H       1  UNL1        0.1189
     13 C          62.7158   84.7310   12.5173 C.3     1  UNL1        0.1179
     14 C          62.6551   83.2698   12.8506 C.ar    1  UNL1        0.0166
     15 C          62.8558   82.2458   11.7731 C.ar    1  UNL1        0.0005
     16 C          62.7951   80.7845   12.1064 C.ar    1  UNL1        0.0204
     17 C          62.5338   80.3473   13.5172 C.ar    1  UNL1        0.0989
     18 N          62.3331   81.3713   14.5948 N.ar    1  UNL1       -0.2426
     19 C          62.3938   82.8326   14.2615 C.ar    1  UNL1        0.0962
@<TRIPOS>BOND
     1     9    10    1
     2    10     8    1
     3     8     7    1
     4     7     6    1
     5     6     5    1
     6     5     1    1
     7     1     2    2
     8     1     3   am
     9     3    13    1
    10    13    14    1
    11    14    15   ar
    12    15    16   ar
    13    16    17   ar
    14    17    18   ar
    15    18    19   ar
    16    19    14   ar
    17     9    11    1
    18     9    12    1
    19     3     4    1
@<TRIPOS>MOLECULE
*****
 19 19 0 0 0
SMALL
GASTEIGER

@<TRIPOS>ATOM
      1 C          61.4529   87.6500   11.1877 C.2     1  UNL1        0.2227
      2 O          60.0880   88.2310   11.4098 O.2     1  UNL1       -0.2751
      3 N          62.6660   88.3673   11.7012 N.am    1  UNL1       -0.3004
      4 H          63.5619   87.9859   11.5555 H       1  UNL1        0.1497
      5 C          61.6047   86.3515   10.4522 C.3     1  UNL1        0.0851
      6 C          61.7852   86.3497    8.9631 C.3     1  UNL1        0.0096
      7 C          60.6129   86.0843    8.0658 C.3     1  UNL1        0.0019
      8 C          59.3826   86.9365    8.1673 C.3     1  UNL1        0.0169
      9 N          60.1178   89.4140    8.4352 N.3     1  UNL1       -0.3211
     10 C          59.4036   88.3476    7.6588 C.3     1  UNL1        0.0651
     11 H          60.0308   90.3056    7.9473 H       1  UNL1        0.1189
     12 H          61.1040   89.1686    8.5219 H       1  UNL1        0.1189
     13 C          62.5143   89.6657   12.4367 C.3     1  UNL1        0.1179
     14 C          63.5610   90.7315   12.3007 C.ar    1  UNL1        0.0166
     15 C          63.8832   91.2982   10.9498 C.ar    1  UNL1        0.0005
     16 C          64.9299   92.3640   10.8138 C.ar    1  UNL1        0.0204
     17 C          65.6544   92.8631   12.0287 C.ar    1  UNL1        0.0989
     18 N          65.3321   92.2965   13.3796 N.ar    1  UNL1       -0.2426
     19 C          64.2854   91.2307   13.5156 C.ar    1  UNL1        0.0962
@<TRIPOS>BOND
     1     9    10    1
     2    10     8    1
     3     8     7    1
     4     7     6    1
     5     6     5    1
     6     5     1    1
     7     1     2    2
     8     1     3   am
     9     3    13    1
    10    13    14    1
    11    14    15   ar
    12    15    16   ar
    13    16    17   ar
    14    17    18   ar
    15    18    19   ar
    16    19    14   ar
    17     9    11    1
    18     9    12    1
    19     3     4    1
@<TRIPOS>MOLECULE
*****
 19 19 0 0 0
SMALL
GASTEIGER

@<TRIPOS>ATOM
      1 C          63.1889   84.1940   13.9011 C.2     1  UNL1        0.2227
      2 O          64.6271   84.6185   13.9366 O.2     1  UNL1       -0.2751
      3 N          62.2349   84.8555   12.9513 N.am    1  UNL1       -0.3004
      4 H          61.2909   84.5768   12.9280 H       1  UNL1        0.1497
      5 C          62.7047   83.1079   14.8156 C.3     1  UNL1        0.0851
      6 C          62.2956   81.7796   14.2515 C.3     1  UNL1        0.0096
      7 C          63.1531   81.1059   13.2216 C.3     1  UNL1        0.0019
      8 C          62.8310   81.2542   11.7641 C.3     1  UNL1        0.0169
      9 N          64.9718   82.6827   11.4083 N.3     1  UNL1       -0.3211
     10 C          63.6628   82.1552   10.9001 C.3     1  UNL1        0.0651
     11 H          65.3998   83.2740   10.6958 H       1  UNL1        0.1189
     12 H          65.5934   81.9023   11.6207 H       1  UNL1        0.1189
     13 C          62.7191   85.9415   12.0369 C.3     1  UNL1        0.1179
     14 C          61.9569   86.2638   10.7858 C.ar    1  UNL1        0.0166
     15 C          60.7864   87.2002   10.8409 C.ar    1  UNL1        0.0005
     16 C          60.0242   87.5225    9.5898 C.ar    1  UNL1        0.0204
     17 C          60.4325   86.9084    8.2837 C.ar    1  UNL1        0.0989
     18 N          61.6030   85.9721    8.2286 N.ar    1  UNL1       -0.2426
     19 C          62.3652   85.6498    9.4796 C.ar    1  UNL1        0.0962
@<TRIPOS>BOND
     1     9    10    1
     2    10     8    1
     3     8     7    1
     4     7     6    1
     5     6     5    1
     6     5     1    1
     7     1     2    2
     8     1     3   am
     9     3    13    1
    10    13    14    1
    11    14    15   ar
    12    15    16   ar
    13    16    17   ar
    14    17    18   ar
    15    18    19   ar
    16    19    14   ar
    17     9    11    1
    18     9    12    1
    19     3     4    1
@<TRIPOS>MOLECULE
*****
 19 19 0 0 0
SMALL
GASTEIGER

@<TRIPOS>ATOM
      1 C          62.7764   84.7367   11.8136 C.2     1  UNL1        0.2227
      2 O          62.3165   85.0322   13.2105 O.2     1  UNL1       -0.2751
      3 N          62.3558   85.6264   10.6816 N.am    1  UNL1       -0.3004
      4 H          62.6577   85.4324    9.7648 H       1  UNL1        0.1497
      5 C          63.6569   83.5515   11.5489 C.3     1  UNL1        0.0851
      6 C          63.0502   82.1912   11.3714 C.3     1  UNL1        0.0096
      7 C          63.3140   81.1146   12.3820 C.3     1  UNL1        0.0019
      8 C          62.2010   80.6174   13.2560 C.3     1  UNL1        0.0169
      9 N          62.4736   82.4746   15.0523 N.3     1  UNL1       -0.3211
     10 C          61.6006   81.5206   14.2924 C.3     1  UNL1        0.0651
     11 H          61.9039   83.0063   15.7104 H       1  UNL1        0.1189
     12 H          62.9262   83.1148   14.3998 H       1  UNL1        0.1189
     13 C          61.4754   86.8115   10.9463 C.3     1  UNL1        0.1179
     14 C          62.0776   88.1793   11.0754 C.ar    1  UNL1        0.0166
     15 C          62.9449   88.5086   12.2541 C.ar    1  UNL1        0.0005
     16 C          63.5471   89.8764   12.3832 C.ar    1  UNL1        0.0204
     17 C          63.2819   90.9147   11.3338 C.ar    1  UNL1        0.0989
     18 N          62.4146   90.5854   10.1551 N.ar    1  UNL1       -0.2426
     19 C          61.8124   89.2176   10.0260 C.ar    1  UNL1        0.0962
@<TRIPOS>BOND
     1     9    10    1
     2    10     8    1
     3     8     7    1
     4     7     6    1
     5     6     5    1
     6     5     1    1
     7     1     2    2
     8     1     3   am
     9     3    13    1
    10    13    14    1
    11    14    15   ar
    12    15    16   ar
    13    16    17   ar
    14    17    18   ar
    15    18    19   ar
    16    19    14   ar
    17     9    11    1
    18     9    12    1
    19     3     4    1
