@<TRIPOS>MOLECULE
*****
 40 44 0 0 0
SMALL
GASTEIGER

@<TRIPOS>ATOM
      1 C          64.0815   84.5589   13.8756 C.ar    1  UNL1        0.0951
      2 C          63.8306   83.1474   14.3167 C.ar    1  UNL1        0.1454
      3 F          64.3185   82.6825   15.6568 F       1  UNL1       -0.2040
      4 C          63.0919   82.2008   13.4177 C.ar    1  UNL1        0.0312
      5 C          62.6040   82.6657   12.0777 C.ar    1  UNL1        0.0204
      6 C          62.8549   84.0772   11.6366 C.ar    1  UNL1        0.0924
      7 C          63.5936   85.0238   12.5356 C.ar    1  UNL1        0.1598
      8 F          63.8444   86.4354   12.0944 F       1  UNL1       -0.2026
      9 C          64.8203   85.5055   14.7746 C.2     1  UNL1        0.2036
     10 O          66.3194   85.4809   14.8199 O.2     1  UNL1       -0.2863
     11 C          64.5572   90.3654   14.6069 C.2     1  UNL1        0.0322
     12 C          63.6642   90.9371   15.6677 C.2     1  UNL1        0.2321
     13 N          62.9680   90.0248   16.6337 N.2     1  UNL1       -0.0311
     14 C          63.1650   88.5408   16.5387 C.2     1  UNL1        0.3721
     15 N          62.6149   87.4017   17.3448 N.2     1  UNL1       -0.0307
     16 C          63.1680   86.1260   16.7821 C.2     1  UNL1        0.2390
     17 C          64.0599   86.4767   15.6282 C.2     1  UNL1        0.0896
     18 C          64.0581   87.9692   15.4778 C.2     1  UNL1        0.0774
     19 C          64.7542   88.8815   14.5119 C.3     1  UNL1        0.0647
     20 C          66.6458   93.1024   11.7090 C.ar    1  UNL1        0.3201
     21 N          65.2604   92.6108   11.4108 N.ar    1  UNL1       -0.1927
     22 C          64.5642   91.6985   12.3768 C.ar    1  UNL1        0.1050
     23 C          65.2534   91.2778   13.6409 C.ar    1  UNL1        0.0386
     24 C          66.6389   91.7694   13.9390 C.ar    1  UNL1        0.1050
     25 N          67.3351   92.6816   12.9731 N.ar    1  UNL1       -0.1927
     26 C          67.6810   93.5296    9.3647 C.3     1  UNL1        0.2559
     27 O          67.3420   94.0146   10.7430 O.3     1  UNL1       -0.4426
     28 N          62.3670   84.5422   10.2965 N.pl3   1  UNL1       -0.2127
     29 H          62.3691   83.9240    9.5303 H       1  UNL1        0.1738
     30 S          61.8759   85.9490   10.1240 S.O2    1  UNL1        0.0759
     31 O          61.0667   85.8207   11.3804 O.2     1  UNL1       -0.1499
     32 O          62.6850   86.0773    8.8674 O.2     1  UNL1       -0.1499
     33 C          61.3848   87.3558    9.9513 C.ar    1  UNL1        0.1547
     34 C          61.8221   88.4255   10.9076 C.ar    1  UNL1        0.0521
     35 C          61.3311   89.8323   10.7350 C.ar    1  UNL1        0.1416
     36 F          61.7685   90.9019   11.6914 F       1  UNL1       -0.2041
     37 C          60.4027   90.1694    9.6061 C.ar    1  UNL1        0.0320
     38 C          59.9654   89.0997    8.6498 C.ar    1  UNL1        0.0333
     39 C          60.4564   87.6929    8.8224 C.ar    1  UNL1        0.1590
     40 F          60.0191   86.6233    7.8661 F       1  UNL1       -0.2027
@<TRIPOS>BOND
     1    26    27    1
     2    27    20    1
     3    20    21   ar
     4    21    22   ar
     5    22    23   ar
     6    23    11    1
     7    11    12    2
     8    12    13    1
     9    13    14    2
    10    14    15    1
    11    15    16    2
    12    16    17    1
    13    17     9    1
    14     9    10    2
    15     9     1    1
    16     1     2   ar
    17     2     3    1
    18     2     4   ar
    19     4     5   ar
    20     5     6   ar
    21     6    28    1
    22    28    30    1
    23    30    31    2
    24    30    32    2
    25    30    33    1
    26    33    34   ar
    27    34    35   ar
    28    35    36    1
    29    35    37   ar
    30    37    38   ar
    31    38    39   ar
    32    39    40    1
    33     6     7   ar
    34     7     8    1
    35    17    18    2
    36    18    19    1
    37    23    24   ar
    38    24    25   ar
    39    25    20   ar
    40    19    11    1
    41    18    14    1
    42     7     1   ar
    43    39    33   ar
    44    28    29    1
@<TRIPOS>MOLECULE
*****
 40 44 0 0 0
SMALL
GASTEIGER

@<TRIPOS>ATOM
      1 C          64.5671   91.2192   12.5508 C.ar    1  UNL1        0.0951
      2 C          65.1325   92.1137   11.4877 C.ar    1  UNL1        0.1454
      3 F          66.4434   92.8078   11.7108 F       1  UNL1       -0.2040
      4 C          64.3871   92.3142   10.2016 C.ar    1  UNL1        0.0312
      5 C          63.0762   91.6201    9.9785 C.ar    1  UNL1        0.0204
      6 C          62.5107   90.7256   11.0415 C.ar    1  UNL1        0.0924
      7 C          63.2562   90.5251   12.3277 C.ar    1  UNL1        0.1598
      8 F          62.6906   89.6306   13.3907 F       1  UNL1       -0.2026
      9 C          65.3125   91.0188   13.8369 C.2     1  UNL1        0.2036
     10 O          66.8047   91.1673   13.8698 O.2     1  UNL1       -0.2863
     11 C          63.6536   86.7408   15.4688 C.2     1  UNL1        0.0322
     12 C          62.9526   86.8539   16.7900 C.2     1  UNL1        0.2321
     13 N          62.8266   88.1899   17.4602 N.2     1  UNL1       -0.0311
     14 C          63.4015   89.4128   16.8091 C.2     1  UNL1        0.3721
     15 N          63.4314   90.8529   17.2280 N.2     1  UNL1       -0.0307
     16 C          64.1509   91.6298   16.1655 C.2     1  UNL1        0.2390
     17 C          64.5657   90.6698   15.0901 C.2     1  UNL1        0.0896
     18 C          64.1026   89.2997   15.4879 C.2     1  UNL1        0.0774
     19 C          64.2286   87.9637   14.8177 C.3     1  UNL1        0.0647
     20 C          64.0319   82.7327   13.4581 C.ar    1  UNL1        0.3201
     21 N          63.9845   82.8194   14.9548 N.ar    1  UNL1       -0.1927
     22 C          63.8584   84.1555   15.6251 C.ar    1  UNL1        0.1050
     23 C          63.7797   85.4047   14.7986 C.ar    1  UNL1        0.0386
     24 C          63.8271   85.3180   13.3018 C.ar    1  UNL1        0.1050
     25 N          63.9531   83.9821   12.6316 N.ar    1  UNL1       -0.1927
     26 C          62.9281   80.6028   12.4608 C.3     1  UNL1        0.2559
     27 O          64.1579   81.3968   12.7879 O.3     1  UNL1       -0.4426
     28 N          61.1998   90.0315   10.8184 N.pl3   1  UNL1       -0.2127
     29 H          60.3803   90.3806   11.2378 H       1  UNL1        0.1738
     30 S          61.1375   88.8055    9.9564 S.O2    1  UNL1        0.0759
     31 O          60.8094   89.6583    8.7670 O.2     1  UNL1       -0.1499
     32 O          61.4657   87.9525   11.1459 O.2     1  UNL1       -0.1499
     33 C          61.0753   87.5794    9.0945 C.ar    1  UNL1        0.1547
     34 C          62.2408   86.6365    9.0464 C.ar    1  UNL1        0.0521
     35 C          62.1785   85.4104    8.1845 C.ar    1  UNL1        0.1416
     36 F          63.3442   84.4675    8.1364 F       1  UNL1       -0.2041
     37 C          60.9507   85.1273    7.3706 C.ar    1  UNL1        0.0320
     38 C          59.7852   86.0703    7.4187 C.ar    1  UNL1        0.0333
     39 C          59.8475   87.2963    8.2807 C.ar    1  UNL1        0.1590
     40 F          58.6819   88.2392    8.3287 F       1  UNL1       -0.2027
@<TRIPOS>BOND
     1    26    27    1
     2    27    20    1
     3    20    21   ar
     4    21    22   ar
     5    22    23   ar
     6    23    11    1
     7    11    12    2
     8    12    13    1
     9    13    14    2
    10    14    15    1
    11    15    16    2
    12    16    17    1
    13    17     9    1
    14     9    10    2
    15     9     1    1
    16     1     2   ar
    17     2     3    1
    18     2     4   ar
    19     4     5   ar
    20     5     6   ar
    21     6    28    1
    22    28    30    1
    23    30    31    2
    24    30    32    2
    25    30    33    1
    26    33    34   ar
    27    34    35   ar
    28    35    36    1
    29    35    37   ar
    30    37    38   ar
    31    38    39   ar
    32    39    40    1
    33     6     7   ar
    34     7     8    1
    35    17    18    2
    36    18    19    1
    37    23    24   ar
    38    24    25   ar
    39    25    20   ar
    40    19    11    1
    41    18    14    1
    42     7     1   ar
    43    39    33   ar
    44    28    29    1
@<TRIPOS>MOLECULE
*****
 40 44 0 0 0
SMALL
GASTEIGER

@<TRIPOS>ATOM
      1 C          64.3305   91.0647   14.4268 C.ar    1  UNL1        0.0951
      2 C          64.5411   91.5137   15.8424 C.ar    1  UNL1        0.1454
      3 F          63.5382   91.1574   16.8993 F       1  UNL1       -0.2040
      4 C          65.7547   92.3191   16.2010 C.ar    1  UNL1        0.0312
      5 C          66.7576   92.6754   15.1440 C.ar    1  UNL1        0.0204
      6 C          66.5470   92.2263   13.7284 C.ar    1  UNL1        0.0924
      7 C          65.3334   91.4210   13.3698 C.ar    1  UNL1        0.1598
      8 F          65.1228   90.9720   11.9542 F       1  UNL1       -0.2026
      9 C          63.1169   90.2593   14.0681 C.2     1  UNL1        0.2036
     10 O          62.2632   89.6672   15.1501 O.2     1  UNL1       -0.2863
     11 C          62.6551   86.1639   11.4739 C.2     1  UNL1        0.0322
     12 C          62.2749   86.4192   10.0455 C.2     1  UNL1        0.2321
     13 N          62.0798   87.8254    9.5613 N.2     1  UNL1       -0.0311
     14 C          62.2649   88.9762   10.5054 C.2     1  UNL1        0.3721
     15 N          62.1420   90.4593   10.3165 N.2     1  UNL1       -0.0307
     16 C          62.4462   91.1204   11.6281 C.2     1  UNL1        0.2390
     17 C          62.7571   90.0460   12.6276 C.2     1  UNL1        0.0896
     18 C          62.6451   88.7209   11.9338 C.2     1  UNL1        0.0774
     19 C          62.8402   87.3147   12.4180 C.3     1  UNL1        0.0647
     20 C          63.2403   81.9452   12.9268 C.ar    1  UNL1        0.3201
     21 N          63.3881   82.2634   11.4684 N.ar    1  UNL1       -0.1927
     22 C          63.1930   83.6697   10.9841 C.ar    1  UNL1        0.1050
     23 C          62.8502   84.7576   11.9582 C.ar    1  UNL1        0.0386
     24 C          62.7024   84.4393   13.4165 C.ar    1  UNL1        0.1050
     25 N          62.8975   83.0332   13.9009 N.ar    1  UNL1       -0.1927
     26 C          62.2889   79.5721   13.3882 C.3     1  UNL1        0.2559
     27 O          63.4354   80.5390   13.4111 O.3     1  UNL1       -0.4426
     28 N          67.5499   92.5827   12.6715 N.pl3   1  UNL1       -0.2127
     29 H          68.4553   92.1973   12.7021 H       1  UNL1        0.1738
     30 S          67.1732   93.5262   11.5678 S.O2    1  UNL1        0.0759
     31 O          67.6434   92.5269   10.5529 O.2     1  UNL1       -0.1499
     32 O          66.7029   94.5256   12.5828 O.2     1  UNL1       -0.1499
     33 C          66.7965   94.4698   10.4643 C.ar    1  UNL1        0.1547
     34 C          65.4818   95.1904   10.5098 C.ar    1  UNL1        0.0521
     35 C          65.1051   96.1340    9.4063 C.ar    1  UNL1        0.1416
     36 F          63.7902   96.8546    9.4519 F       1  UNL1       -0.2041
     37 C          66.0431   96.3569    8.2573 C.ar    1  UNL1        0.0320
     38 C          67.3579   95.6363    8.2117 C.ar    1  UNL1        0.0333
     39 C          67.7346   94.6927    9.3153 C.ar    1  UNL1        0.1590
     40 F          69.0493   93.9721    9.2697 F       1  UNL1       -0.2027
@<TRIPOS>BOND
     1    26    27    1
     2    27    20    1
     3    20    21   ar
     4    21    22   ar
     5    22    23   ar
     6    23    11    1
     7    11    12    2
     8    12    13    1
     9    13    14    2
    10    14    15    1
    11    15    16    2
    12    16    17    1
    13    17     9    1
    14     9    10    2
    15     9     1    1
    16     1     2   ar
    17     2     3    1
    18     2     4   ar
    19     4     5   ar
    20     5     6   ar
    21     6    28    1
    22    28    30    1
    23    30    31    2
    24    30    32    2
    25    30    33    1
    26    33    34   ar
    27    34    35   ar
    28    35    36    1
    29    35    37   ar
    30    37    38   ar
    31    38    39   ar
    32    39    40    1
    33     6     7   ar
    34     7     8    1
    35    17    18    2
    36    18    19    1
    37    23    24   ar
    38    24    25   ar
    39    25    20   ar
    40    19    11    1
    41    18    14    1
    42     7     1   ar
    43    39    33   ar
    44    28    29    1
@<TRIPOS>MOLECULE
*****
 40 44 0 0 0
SMALL
GASTEIGER

@<TRIPOS>ATOM
      1 C          61.4465   88.7039   10.7739 C.ar    1  UNL1        0.0951
      2 C          60.4867   88.7986    9.6250 C.ar    1  UNL1        0.1454
      3 F          59.5682   89.9789    9.5105 F       1  UNL1       -0.2040
      4 C          60.4455   87.7131    8.5907 C.ar    1  UNL1        0.0312
      5 C          61.3641   86.5328    8.7052 C.ar    1  UNL1        0.0204
      6 C          62.3238   86.4380    9.8540 C.ar    1  UNL1        0.0924
      7 C          62.3650   87.5236   10.8884 C.ar    1  UNL1        0.1598
      8 F          63.3248   87.4288   12.0372 F       1  UNL1       -0.2026
      9 C          61.4877   89.7894   11.8082 C.2     1  UNL1        0.2036
     10 O          60.4432   90.8660   11.8075 O.2     1  UNL1       -0.2863
     11 C          65.6422   92.3193   12.0435 C.2     1  UNL1        0.0322
     12 C          66.4421   92.0120   13.2747 C.2     1  UNL1        0.2321
     13 N          65.9312   91.0140   14.2711 N.2     1  UNL1       -0.0311
     14 C          64.6205   90.3234   14.0365 C.2     1  UNL1        0.3721
     15 N          63.8675   89.3011   14.8353 N.2     1  UNL1       -0.0307
     16 C          62.6022   88.9767   14.0978 C.2     1  UNL1        0.2390
     17 C          62.5733   89.7984   12.8432 C.2     1  UNL1        0.0896
     18 C          63.8207   90.6307   12.8053 C.2     1  UNL1        0.0774
     19 C          64.3315   91.6286   11.8088 C.3     1  UNL1        0.0647
     20 C          67.1748   95.3133    9.0539 C.ar    1  UNL1        0.3201
     21 N          66.1408   95.7211   10.0611 N.ar    1  UNL1       -0.1927
     22 C          65.6299   94.7230   11.0576 C.ar    1  UNL1        0.1050
     23 C          66.1531   93.3173   11.0469 C.ar    1  UNL1        0.0386
     24 C          67.1871   92.9095   10.0397 C.ar    1  UNL1        0.1050
     25 N          67.6980   93.9075    9.0432 N.ar    1  UNL1       -0.1927
     26 C          66.7684   96.8542    7.0020 C.3     1  UNL1        0.2559
     27 O          67.6856   96.3112    8.0573 O.3     1  UNL1       -0.4426
     28 N          63.2424   85.2577    9.9685 N.pl3   1  UNL1       -0.2127
     29 H          63.9836   85.1471    9.3302 H       1  UNL1        0.1738
     30 S          63.0315   84.2460   11.0557 S.O2    1  UNL1        0.0759
     31 O          61.6471   84.7772   11.2816 O.2     1  UNL1       -0.1499
     32 O          64.4159   83.7146   10.8298 O.2     1  UNL1       -0.1499
     33 C          62.8206   83.2342   12.1429 C.ar    1  UNL1        0.1547
     34 C          62.6832   81.7808   11.7984 C.ar    1  UNL1        0.0521
     35 C          62.4724   80.7690   12.8856 C.ar    1  UNL1        0.1416
     36 F          62.3349   79.3156   12.5410 F       1  UNL1       -0.2041
     37 C          62.3990   81.2107   14.3172 C.ar    1  UNL1        0.0320
     38 C          62.5364   82.6641   14.6616 C.ar    1  UNL1        0.0333
     39 C          62.7472   83.6759   13.5745 C.ar    1  UNL1        0.1590
     40 F          62.8847   85.1292   13.9190 F       1  UNL1       -0.2027
@<TRIPOS>BOND
     1    26    27    1
     2    27    20    1
     3    20    21   ar
     4    21    22   ar
     5    22    23   ar
     6    23    11    1
     7    11    12    2
     8    12    13    1
     9    13    14    2
    10    14    15    1
    11    15    16    2
    12    16    17    1
    13    17     9    1
    14     9    10    2
    15     9     1    1
    16     1     2   ar
    17     2     3    1
    18     2     4   ar
    19     4     5   ar
    20     5     6   ar
    21     6    28    1
    22    28    30    1
    23    30    31    2
    24    30    32    2
    25    30    33    1
    26    33    34   ar
    27    34    35   ar
    28    35    36    1
    29    35    37   ar
    30    37    38   ar
    31    38    39   ar
    32    39    40    1
    33     6     7   ar
    34     7     8    1
    35    17    18    2
    36    18    19    1
    37    23    24   ar
    38    24    25   ar
    39    25    20   ar
    40    19    11    1
    41    18    14    1
    42     7     1   ar
    43    39    33   ar
    44    28    29    1
@<TRIPOS>MOLECULE
*****
 40 44 0 0 0
SMALL
GASTEIGER

@<TRIPOS>ATOM
      1 C          63.8701   87.1246   15.7061 C.ar    1  UNL1        0.0951
      2 C          63.0503   87.7571   16.7914 C.ar    1  UNL1        0.1454
      3 F          63.1875   89.2232   17.0772 F       1  UNL1       -0.2040
      4 C          62.0933   86.9234   17.5910 C.ar    1  UNL1        0.0312
      5 C          61.9561   85.4573   17.3052 C.ar    1  UNL1        0.0204
      6 C          62.7759   84.8249   16.2199 C.ar    1  UNL1        0.0924
      7 C          63.7328   85.6585   15.4203 C.ar    1  UNL1        0.1598
      8 F          64.5525   85.0259   14.3350 F       1  UNL1       -0.2026
      9 C          64.8270   87.9582   14.9065 C.2     1  UNL1        0.2036
     10 O          66.2406   87.4965   14.7101 O.2     1  UNL1       -0.2863
     11 C          62.3933   88.8708   10.7883 C.2     1  UNL1        0.0322
     12 C          62.1432   90.3338   10.5718 C.2     1  UNL1        0.2321
     13 N          62.6315   91.3348   11.5766 N.2     1  UNL1       -0.0311
     14 C          63.3697   90.8727   12.7978 C.2     1  UNL1        0.3721
     15 N          63.9659   91.6209   13.9533 N.2     1  UNL1       -0.0307
     16 C          64.5844   90.6201   14.8838 C.2     1  UNL1        0.2390
     17 C          64.3704   89.2536   14.3035 C.2     1  UNL1        0.0896
     18 C          63.6197   89.4097   13.0143 C.2     1  UNL1        0.0774
     19 C          63.1315   88.4087   12.0096 C.3     1  UNL1        0.0647
     20 C          60.9286   85.8676    7.7739 C.ar    1  UNL1        0.3201
     21 N          62.2448   85.6585    8.4623 N.ar    1  UNL1       -0.1927
     22 C          62.7330   86.6596    9.4671 C.ar    1  UNL1        0.1050
     23 C          61.9050   87.8697    9.7835 C.ar    1  UNL1        0.0386
     24 C          60.5888   88.0788    9.0951 C.ar    1  UNL1        0.1050
     25 N          60.1006   87.0778    8.0904 N.ar    1  UNL1       -0.1927
     26 C          61.4162   84.1762    5.8632 C.3     1  UNL1        0.2559
     27 O          60.4403   84.8666    6.7692 O.3     1  UNL1       -0.4426
     28 N          62.6387   83.3588   15.9341 N.pl3   1  UNL1       -0.2127
     29 H          62.4274   82.7326   16.6638 H       1  UNL1        0.1738
     30 S          62.8233   82.8467   14.5363 S.O2    1  UNL1        0.0759
     31 O          61.5483   83.5190   14.1215 O.2     1  UNL1       -0.1499
     32 O          64.0984   82.1742   14.9511 O.2     1  UNL1       -0.1499
     33 C          63.0080   82.3345   13.1386 C.ar    1  UNL1        0.1547
     34 C          63.6343   83.2114   12.0952 C.ar    1  UNL1        0.0521
     35 C          63.8191   82.6993   10.6974 C.ar    1  UNL1        0.1416
     36 F          64.4454   83.5763    9.6541 F       1  UNL1       -0.2041
     37 C          63.3774   81.3103   10.3431 C.ar    1  UNL1        0.0320
     38 C          62.7511   80.4334   11.3865 C.ar    1  UNL1        0.0333
     39 C          62.5664   80.9455   12.7843 C.ar    1  UNL1        0.1590
     40 F          61.9400   80.0685   13.8276 F       1  UNL1       -0.2027
@<TRIPOS>BOND
     1    26    27    1
     2    27    20    1
     3    20    21   ar
     4    21    22   ar
     5    22    23   ar
     6    23    11    1
     7    11    12    2
     8    12    13    1
     9    13    14    2
    10    14    15    1
    11    15    16    2
    12    16    17    1
    13    17     9    1
    14     9    10    2
    15     9     1    1
    16     1     2   ar
    17     2     3    1
    18     2     4   ar
    19     4     5   ar
    20     5     6   ar
    21     6    28    1
    22    28    30    1
    23    30    31    2
    24    30    32    2
    25    30    33    1
    26    33    34   ar
    27    34    35   ar
    28    35    36    1
    29    35    37   ar
    30    37    38   ar
    31    38    39   ar
    32    39    40    1
    33     6     7   ar
    34     7     8    1
    35    17    18    2
    36    18    19    1
    37    23    24   ar
    38    24    25   ar
    39    25    20   ar
    40    19    11    1
    41    18    14    1
    42     7     1   ar
    43    39    33   ar
    44    28    29    1
