@<TRIPOS>MOLECULE
*****
 30 32 0 0 0
SMALL
GASTEIGER

@<TRIPOS>ATOM
      1 C          61.9690   89.0567   11.6388 C.ar    1  UNL1        0.1345
      2 C          62.3842   87.6373   11.8900 C.ar    1  UNL1        0.0487
      3 C          62.2482   86.6126   10.8031 C.ar    1  UNL1        0.0529
      4 C          61.6971   87.0072    9.4650 C.ar    1  UNL1        0.1037
      5 C          61.2819   88.4265    9.2138 C.ar    1  UNL1        0.1054
      6 N          61.4179   89.4513   10.3007 N.ar    1  UNL1       -0.2290
      7 C          61.5611   85.9823    8.3780 C.3     1  UNL1        0.4212
      8 F          61.4252   84.9576    7.2912 F       1  UNL1       -0.1658
      9 F          63.0492   85.9848    8.1896 F       1  UNL1       -0.1658
     10 F          60.0730   85.9799    8.5665 F       1  UNL1       -0.1658
     11 N          62.1050   90.0814   12.7257 N.pl3   1  UNL1       -0.2821
     12 H          61.3061   90.3994   13.2052 H       1  UNL1        0.1551
     13 C          66.1645   91.7024   13.7947 C.ar    1  UNL1        0.1683
     14 C          65.4673   92.1830   12.5567 C.ar    1  UNL1        0.1299
     15 N          64.1141   91.6427   12.2004 N.ar    1  UNL1       -0.2251
     16 C          63.4582   90.6217   13.0820 C.ar    1  UNL1        0.1527
     17 C          64.1555   90.1411   14.3201 C.ar    1  UNL1        0.1340
     18 N          65.5086   90.6814   14.6764 N.ar    1  UNL1       -0.2290
     19 N          68.8709   92.7830   14.5074 N.1     1  UNL1       -0.1892
     20 C          67.5177   92.2427   14.1511 C.1     1  UNL1        0.1214
     21 N          62.6634   85.1932   11.0543 N.pl3   1  UNL1       -0.3306
     22 H          62.7070   84.5535   10.3072 H       1  UNL1        0.1469
     23 C          63.0121   84.7485   12.4437 C.3     1  UNL1        0.1184
     24 C          62.8069   83.3185   12.8472 C.3     1  UNL1        0.1503
     25 C          62.4688   82.9815   14.2692 C.3     1  UNL1        0.1003
     26 N          62.2636   81.5515   14.6727 N.3     1  UNL1       -0.2933
     27 C          62.3965   80.4583   13.6542 C.3     1  UNL1        0.1011
     28 C          62.7346   80.7952   12.2322 C.3     1  UNL1        0.1592
     29 O          62.9398   82.2254   11.8287 O.3     1  UNL1       -0.3516
     30 H          61.3198   81.4856   15.0539 H       1  UNL1        0.1234
@<TRIPOS>BOND
     1    19    20    3
     2    20    13    1
     3    13    14   ar
     4    14    15   ar
     5    15    16   ar
     6    16    11    1
     7    11     1    1
     8     1     2   ar
     9     2     3   ar
    10     3    21    1
    11    21    23    1
    12    24    23    1
    13    24    25    1
    14    25    26    1
    15    26    27    1
    16    27    28    1
    17    28    29    1
    18     3     4   ar
    19     4     7    1
    20     7     8    1
    21     7     9    1
    22     7    10    1
    23     4     5   ar
    24     5     6   ar
    25    16    17   ar
    26    17    18   ar
    27    18    13   ar
    28     6     1   ar
    29    29    24    1
    30    11    12    1
    31    21    22    1
    32    26    30    1
@<TRIPOS>MOLECULE
*****
 30 32 0 0 0
SMALL
GASTEIGER

@<TRIPOS>ATOM
      1 C          62.8224   90.5282   13.3181 C.ar    1  UNL1        0.1345
      2 C          63.8588   91.2243   12.4866 C.ar    1  UNL1        0.0487
      3 C          65.1343   91.6968   13.1189 C.ar    1  UNL1        0.0529
      4 C          65.3734   91.4733   14.5828 C.ar    1  UNL1        0.1037
      5 C          64.3371   90.7772   15.4143 C.ar    1  UNL1        0.1054
      6 N          63.0615   90.3047   14.7820 N.ar    1  UNL1       -0.2290
      7 C          66.6490   91.9458   15.2151 C.3     1  UNL1        0.4212
      8 F          67.9244   92.4184   15.8474 F       1  UNL1       -0.1658
      9 F          65.9298   93.1370   15.7754 F       1  UNL1       -0.1658
     10 F          67.3681   90.7547   14.6548 F       1  UNL1       -0.1658
     11 N          61.5469   90.0557   12.6858 N.pl3   1  UNL1       -0.2821
     12 H          60.6823   90.4054   13.0010 H       1  UNL1        0.1551
     13 C          61.6727   87.0400    9.3482 C.ar    1  UNL1        0.1683
     14 C          62.2834   86.7124   10.6785 C.ar    1  UNL1        0.1299
     15 N          62.2415   87.7176   11.7910 N.ar    1  UNL1       -0.2251
     16 C          61.5888   89.0505   11.5733 C.ar    1  UNL1        0.1527
     17 C          60.9781   89.3781   10.2430 C.ar    1  UNL1        0.1340
     18 N          61.0201   88.3729    9.1305 N.ar    1  UNL1       -0.2290
     19 N          61.7565   85.0295    7.1231 N.1     1  UNL1       -0.1892
     20 C          61.7146   86.0348    8.2357 C.1     1  UNL1        0.1214
     21 N          66.1707   92.3929   12.2874 N.pl3   1  UNL1       -0.3306
     22 H          67.0658   92.5652   12.6593 H       1  UNL1        0.1469
     23 C          65.8432   92.8265   10.8893 C.3     1  UNL1        0.1184
     24 C          66.3152   94.1589   10.3873 C.3     1  UNL1        0.1503
     25 C          67.3417   94.2283    9.2957 C.3     1  UNL1        0.1003
     26 N          67.8137   95.5607    8.7937 N.3     1  UNL1       -0.2933
     27 C          67.2593   96.8236    9.3833 C.3     1  UNL1        0.1011
     28 C          66.2328   96.7542   10.4749 C.3     1  UNL1        0.1592
     29 O          65.7608   95.4218   10.9769 O.3     1  UNL1       -0.3516
     30 H          67.6100   95.5879    7.7946 H       1  UNL1        0.1234
@<TRIPOS>BOND
     1    19    20    3
     2    20    13    1
     3    13    14   ar
     4    14    15   ar
     5    15    16   ar
     6    16    11    1
     7    11     1    1
     8     1     2   ar
     9     2     3   ar
    10     3    21    1
    11    21    23    1
    12    24    23    1
    13    24    25    1
    14    25    26    1
    15    26    27    1
    16    27    28    1
    17    28    29    1
    18     3     4   ar
    19     4     7    1
    20     7     8    1
    21     7     9    1
    22     7    10    1
    23     4     5   ar
    24     5     6   ar
    25    16    17   ar
    26    17    18   ar
    27    18    13   ar
    28     6     1   ar
    29    29    24    1
    30    11    12    1
    31    21    22    1
    32    26    30    1
@<TRIPOS>MOLECULE
*****
 30 32 0 0 0
SMALL
GASTEIGER

@<TRIPOS>ATOM
      1 C          63.7989   87.6659   13.8111 C.ar    1  UNL1        0.1345
      2 C          64.1495   89.0980   14.0872 C.ar    1  UNL1        0.0487
      3 C          63.8165   90.1592   13.0808 C.ar    1  UNL1        0.0529
      4 C          63.1329   89.7883   11.7982 C.ar    1  UNL1        0.1037
      5 C          62.7823   88.3563   11.5220 C.ar    1  UNL1        0.1054
      6 N          63.1153   87.2951   12.5284 N.ar    1  UNL1       -0.2290
      7 C          62.7999   90.8496   10.7917 C.3     1  UNL1        0.4212
      8 F          62.4668   91.9108    9.7853 F       1  UNL1       -0.1658
      9 F          61.3970   90.9095   11.3192 F       1  UNL1       -0.1658
     10 F          64.2027   90.7897   10.2642 F       1  UNL1       -0.1658
     11 N          64.1320   86.6047   14.8175 N.pl3   1  UNL1       -0.2821
     12 H          64.5947   86.8459   15.6523 H       1  UNL1        0.1551
     13 C          63.0161   82.3187   14.0210 C.ar    1  UNL1        0.1683
     14 C          62.0979   83.1970   14.8181 C.ar    1  UNL1        0.1299
     15 N          62.4699   84.6257   15.0836 N.ar    1  UNL1       -0.2251
     16 C          63.7600   85.1760   14.5520 C.ar    1  UNL1        0.1527
     17 C          64.6782   84.2977   13.7549 C.ar    1  UNL1        0.1340
     18 N          64.3062   82.8690   13.4894 N.ar    1  UNL1       -0.2290
     19 N          62.2722   79.4613   13.4899 N.1     1  UNL1       -0.1892
     20 C          62.6441   80.8900   13.7555 C.1     1  UNL1        0.1214
     21 N          64.1671   91.5913   13.3570 N.pl3   1  UNL1       -0.3306
     22 H          63.5517   92.1574   13.8767 H       1  UNL1        0.1469
     23 C          65.4553   92.1610   12.8412 C.3     1  UNL1        0.1184
     24 C          66.6115   92.3662   13.7745 C.3     1  UNL1        0.1503
     25 C          67.9889   91.9322   13.3690 C.3     1  UNL1        0.1003
     26 N          69.1451   92.1375   14.3023 N.3     1  UNL1       -0.2933
     27 C          68.9239   92.7768   15.6411 C.3     1  UNL1        0.1011
     28 C          67.5465   93.2108   16.0466 C.3     1  UNL1        0.1592
     29 O          66.3903   93.0055   15.1132 O.3     1  UNL1       -0.3516
     30 H          69.8234   92.7169   13.8077 H       1  UNL1        0.1234
@<TRIPOS>BOND
     1    19    20    3
     2    20    13    1
     3    13    14   ar
     4    14    15   ar
     5    15    16   ar
     6    16    11    1
     7    11     1    1
     8     1     2   ar
     9     2     3   ar
    10     3    21    1
    11    21    23    1
    12    24    23    1
    13    24    25    1
    14    25    26    1
    15    26    27    1
    16    27    28    1
    17    28    29    1
    18     3     4   ar
    19     4     7    1
    20     7     8    1
    21     7     9    1
    22     7    10    1
    23     4     5   ar
    24     5     6   ar
    25    16    17   ar
    26    17    18   ar
    27    18    13   ar
    28     6     1   ar
    29    29    24    1
    30    11    12    1
    31    21    22    1
    32    26    30    1
@<TRIPOS>MOLECULE
*****
 30 32 0 0 0
SMALL
GASTEIGER

@<TRIPOS>ATOM
      1 C          63.4832   83.7911   14.7859 C.ar    1  UNL1        0.1345
      2 C          63.1035   84.5345   13.5396 C.ar    1  UNL1        0.0487
      3 C          63.0847   83.8239   12.2188 C.ar    1  UNL1        0.0529
      4 C          63.4456   82.3699   12.1442 C.ar    1  UNL1        0.1037
      5 C          63.8253   81.6265   13.3904 C.ar    1  UNL1        0.1054
      6 N          63.8441   82.3371   14.7113 N.ar    1  UNL1       -0.2290
      7 C          63.4267   81.6593   10.8232 C.3     1  UNL1        0.4212
      8 F          63.4080   80.9487    9.5024 F       1  UNL1       -0.1658
      9 F          64.5470   82.5309   10.3384 F       1  UNL1       -0.1658
     10 F          62.3065   80.7876   11.3081 F       1  UNL1       -0.1658
     11 N          63.5020   84.5018   16.1067 N.pl3   1  UNL1       -0.2821
     12 H          63.5102   83.9841   16.9441 H       1  UNL1        0.1551
     13 C          63.5211   88.9997   16.2417 C.ar    1  UNL1        0.1683
     14 C          64.2203   88.2799   15.1269 C.ar    1  UNL1        0.1299
     15 N          64.2139   86.7805   15.0819 N.ar    1  UNL1       -0.2251
     16 C          63.5084   86.0011   16.1517 C.ar    1  UNL1        0.1527
     17 C          62.8092   86.7209   17.2665 C.ar    1  UNL1        0.1340
     18 N          62.8155   88.2202   17.3115 N.ar    1  UNL1       -0.2290
     19 N          63.5338   91.9983   16.3317 N.1     1  UNL1       -0.1892
     20 C          63.5274   90.4990   16.2867 C.1     1  UNL1        0.1214
     21 N          62.7049   84.5673   10.9724 N.pl3   1  UNL1       -0.3306
     22 H          63.2021   84.4135   10.1367 H       1  UNL1        0.1469
     23 C          61.5677   85.5450   10.9995 C.3     1  UNL1        0.1184
     24 C          61.8415   87.0168   10.9051 C.3     1  UNL1        0.1503
     25 C          61.2804   87.8124    9.7640 C.3     1  UNL1        0.1003
     26 N          61.5542   89.2842    9.6697 N.3     1  UNL1       -0.2933
     27 C          62.3892   89.9604   10.7165 C.3     1  UNL1        0.1011
     28 C          62.9503   89.1647   11.8576 C.3     1  UNL1        0.1592
     29 O          62.6764   87.6929   11.9519 O.3     1  UNL1       -0.3516
     30 H          60.6482   89.7527    9.6678 H       1  UNL1        0.1234
@<TRIPOS>BOND
     1    19    20    3
     2    20    13    1
     3    13    14   ar
     4    14    15   ar
     5    15    16   ar
     6    16    11    1
     7    11     1    1
     8     1     2   ar
     9     2     3   ar
    10     3    21    1
    11    21    23    1
    12    24    23    1
    13    24    25    1
    14    25    26    1
    15    26    27    1
    16    27    28    1
    17    28    29    1
    18     3     4   ar
    19     4     7    1
    20     7     8    1
    21     7     9    1
    22     7    10    1
    23     4     5   ar
    24     5     6   ar
    25    16    17   ar
    26    17    18   ar
    27    18    13   ar
    28     6     1   ar
    29    29    24    1
    30    11    12    1
    31    21    22    1
    32    26    30    1
@<TRIPOS>MOLECULE
*****
 30 32 0 0 0
SMALL
GASTEIGER

@<TRIPOS>ATOM
      1 C          63.9171   87.8522   13.8929 C.ar    1  UNL1        0.1345
      2 C          64.3793   89.2610   14.1210 C.ar    1  UNL1        0.0487
      3 C          64.0910   90.3197   13.0983 C.ar    1  UNL1        0.0529
      4 C          63.3405   89.9698   11.8476 C.ar    1  UNL1        0.1037
      5 C          62.8784   88.5612   11.6195 C.ar    1  UNL1        0.1054
      6 N          63.1666   87.5023   12.6422 N.ar    1  UNL1       -0.2290
      7 C          63.0522   91.0287   10.8249 C.3     1  UNL1        0.4212
      8 F          62.7640   92.0875    9.8022 F       1  UNL1       -0.1658
      9 F          64.4844   90.9896   10.3808 F       1  UNL1       -0.1658
     10 F          61.6200   91.0677   11.2690 F       1  UNL1       -0.1658
     11 N          64.2054   86.7935   14.9156 N.pl3   1  UNL1       -0.2821
     12 H          64.6458   87.0341   15.7626 H       1  UNL1        0.1551
     13 C          63.0570   82.5173   14.1124 C.ar    1  UNL1        0.1683
     14 C          62.1610   83.3920   14.9383 C.ar    1  UNL1        0.1299
     15 N          62.5438   84.8174   15.2060 N.ar    1  UNL1       -0.2251
     16 C          63.8226   85.3681   14.6479 C.ar    1  UNL1        0.1527
     17 C          64.7185   84.4933   13.8220 C.ar    1  UNL1        0.1340
     18 N          64.3357   83.0679   13.5543 N.ar    1  UNL1       -0.2290
     19 N          62.2914   79.6665   13.5770 N.1     1  UNL1       -0.1892
     20 C          62.6742   81.0919   13.8447 C.1     1  UNL1        0.1214
     21 N          64.5531   91.7285   13.3264 N.pl3   1  UNL1       -0.3306
     22 H          63.9022   92.4276   13.5647 H       1  UNL1        0.1469
     23 C          66.0071   92.0719   13.1915 C.3     1  UNL1        0.1184
     24 C          66.4749   92.9159   12.0431 C.3     1  UNL1        0.1503
     25 C          66.2690   94.4014   12.0714 C.3     1  UNL1        0.1003
     26 N          66.7369   95.2454   10.9230 N.3     1  UNL1       -0.2933
     27 C          67.4106   94.6038    9.7463 C.3     1  UNL1        0.1011
     28 C          67.6164   93.1183    9.7180 C.3     1  UNL1        0.1592
     29 O          67.1486   92.2743   10.8665 O.3     1  UNL1       -0.3516
     30 H          67.3954   95.9240   11.3054 H       1  UNL1        0.1234
@<TRIPOS>BOND
     1    19    20    3
     2    20    13    1
     3    13    14   ar
     4    14    15   ar
     5    15    16   ar
     6    16    11    1
     7    11     1    1
     8     1     2   ar
     9     2     3   ar
    10     3    21    1
    11    21    23    1
    12    24    23    1
    13    24    25    1
    14    25    26    1
    15    26    27    1
    16    27    28    1
    17    28    29    1
    18     3     4   ar
    19     4     7    1
    20     7     8    1
    21     7     9    1
    22     7    10    1
    23     4     5   ar
    24     5     6   ar
    25    16    17   ar
    26    17    18   ar
    27    18    13   ar
    28     6     1   ar
    29    29    24    1
    30    11    12    1
    31    21    22    1
    32    26    30    1
@<TRIPOS>MOLECULE
*****
 30 32 0 0 0
SMALL
GASTEIGER

@<TRIPOS>ATOM
      1 C          64.3292   90.7410   14.0393 C.ar    1  UNL1        0.1345
      2 C          65.4673   91.1016   13.1310 C.ar    1  UNL1        0.0487
      3 C          66.5736   91.9838   13.6288 C.ar    1  UNL1        0.0529
      4 C          66.5420   92.5053   15.0348 C.ar    1  UNL1        0.1037
      5 C          65.4040   92.1447   15.9431 C.ar    1  UNL1        0.1054
      6 N          64.2976   91.2625   15.4454 N.ar    1  UNL1       -0.2290
      7 C          67.6484   93.3875   15.5326 C.3     1  UNL1        0.4212
      8 F          68.7548   94.2695   16.0304 F       1  UNL1       -0.1658
      9 F          68.1562   92.2666   16.3903 F       1  UNL1       -0.1658
     10 F          67.1406   94.5084   14.6749 F       1  UNL1       -0.1658
     11 N          63.2229   89.8589   13.5415 N.pl3   1  UNL1       -0.2821
     12 H          62.3695   90.2554   13.2523 H       1  UNL1        0.1551
     13 C          63.8047   85.4000   13.3700 C.ar    1  UNL1        0.1683
     14 C          63.0674   86.1030   12.2691 C.ar    1  UNL1        0.1299
     15 N          62.8734   87.5893   12.3263 N.ar    1  UNL1       -0.2251
     16 C          63.4168   88.3726   13.4843 C.ar    1  UNL1        0.1527
     17 C          64.1542   87.6695   14.5852 C.ar    1  UNL1        0.1340
     18 N          64.3482   86.1832   14.5280 N.ar    1  UNL1       -0.2290
     19 N          64.1926   82.4273   13.2556 N.1     1  UNL1       -0.1892
     20 C          63.9987   83.9137   13.3128 C.1     1  UNL1        0.1214
     21 N          67.7116   92.3444   12.7205 N.pl3   1  UNL1       -0.3306
     22 H          68.5966   92.5520   13.0987 H       1  UNL1        0.1469
     23 C          67.5013   92.3887   11.2360 C.3     1  UNL1        0.1184
     24 C          67.0360   93.6558   10.5819 C.3     1  UNL1        0.1503
     25 C          65.6518   94.1707   10.8440 C.3     1  UNL1        0.1003
     26 N          65.1865   95.4378   10.1899 N.3     1  UNL1       -0.2933
     27 C          66.1056   96.1902    9.2737 C.3     1  UNL1        0.1011
     28 C          67.4898   95.6753    9.0116 C.3     1  UNL1        0.1592
     29 O          67.9551   94.4081    9.6657 O.3     1  UNL1       -0.3516
     30 H          64.9289   96.0791   10.9402 H       1  UNL1        0.1234
@<TRIPOS>BOND
     1    19    20    3
     2    20    13    1
     3    13    14   ar
     4    14    15   ar
     5    15    16   ar
     6    16    11    1
     7    11     1    1
     8     1     2   ar
     9     2     3   ar
    10     3    21    1
    11    21    23    1
    12    24    23    1
    13    24    25    1
    14    25    26    1
    15    26    27    1
    16    27    28    1
    17    28    29    1
    18     3     4   ar
    19     4     7    1
    20     7     8    1
    21     7     9    1
    22     7    10    1
    23     4     5   ar
    24     5     6   ar
    25    16    17   ar
    26    17    18   ar
    27    18    13   ar
    28     6     1   ar
    29    29    24    1
    30    11    12    1
    31    21    22    1
    32    26    30    1
@<TRIPOS>MOLECULE
*****
 30 32 0 0 0
SMALL
GASTEIGER

@<TRIPOS>ATOM
      1 C          59.2810   88.4071    7.5320 C.ar    1  UNL1        0.1345
      2 C          60.1851   88.9952    8.5745 C.ar    1  UNL1        0.0487
      3 C          61.1603   88.1184    9.3026 C.ar    1  UNL1        0.0529
      4 C          61.2314   86.6535    8.9883 C.ar    1  UNL1        0.1037
      5 C          60.3274   86.0653    7.9458 C.ar    1  UNL1        0.1054
      6 N          59.3521   86.9421    7.2177 N.ar    1  UNL1       -0.2290
      7 C          62.2067   85.7766    9.7164 C.3     1  UNL1        0.4212
      8 F          63.1819   84.8999   10.4445 F       1  UNL1       -0.1658
      9 F          61.2387   85.6452   10.8546 F       1  UNL1       -0.1658
     10 F          63.1748   85.9081    8.5782 F       1  UNL1       -0.1658
     11 N          58.3058   89.2839    6.8040 N.pl3   1  UNL1       -0.2821
     12 H          57.3400   89.1900    6.9704 H       1  UNL1        0.1551
     13 C          59.7945   92.3437    3.8592 C.ar    1  UNL1        0.1683
     14 C          60.7590   91.3956    4.5079 C.ar    1  UNL1        0.1299
     15 N          60.2628   90.3757    5.4895 N.ar    1  UNL1       -0.2251
     16 C          58.8020   90.3038    5.8224 C.ar    1  UNL1        0.1527
     17 C          57.8375   91.2519    5.1738 C.ar    1  UNL1        0.1340
     18 N          58.3337   92.2718    4.1922 N.ar    1  UNL1       -0.2290
     19 N          60.7870   94.3835    1.8961 N.1     1  UNL1       -0.1892
     20 C          60.2907   93.3636    2.8777 C.1     1  UNL1        0.1214
     21 N          62.0644   88.7066   10.3451 N.pl3   1  UNL1       -0.3306
     22 H          62.7679   88.1534   10.7554 H       1  UNL1        0.1469
     23 C          61.8967   90.1375   10.7625 C.3     1  UNL1        0.1184
     24 C          63.0706   90.9072   11.2911 C.3     1  UNL1        0.1503
     25 C          63.4141   90.8429   12.7499 C.3     1  UNL1        0.1003
     26 N          64.5880   91.6125   13.2785 N.3     1  UNL1       -0.2933
     27 C          65.4185   92.4465   12.3485 C.3     1  UNL1        0.1011
     28 C          65.0749   92.5108   10.8898 C.3     1  UNL1        0.1592
     29 O          63.9009   91.7411   10.3611 O.3     1  UNL1       -0.3516
     30 H          65.2172   90.9330   13.7060 H       1  UNL1        0.1234
@<TRIPOS>BOND
     1    19    20    3
     2    20    13    1
     3    13    14   ar
     4    14    15   ar
     5    15    16   ar
     6    16    11    1
     7    11     1    1
     8     1     2   ar
     9     2     3   ar
    10     3    21    1
    11    21    23    1
    12    24    23    1
    13    24    25    1
    14    25    26    1
    15    26    27    1
    16    27    28    1
    17    28    29    1
    18     3     4   ar
    19     4     7    1
    20     7     8    1
    21     7     9    1
    22     7    10    1
    23     4     5   ar
    24     5     6   ar
    25    16    17   ar
    26    17    18   ar
    27    18    13   ar
    28     6     1   ar
    29    29    24    1
    30    11    12    1
    31    21    22    1
    32    26    30    1
@<TRIPOS>MOLECULE
*****
 30 32 0 0 0
SMALL
GASTEIGER

@<TRIPOS>ATOM
      1 C          63.8702   91.0289   13.2354 C.ar    1  UNL1        0.1345
      2 C          64.9953   91.5425   12.3865 C.ar    1  UNL1        0.0487
      3 C          66.1721   92.2157   13.0281 C.ar    1  UNL1        0.0529
      4 C          66.2241   92.3754   14.5187 C.ar    1  UNL1        0.1037
      5 C          65.0991   91.8619   15.3676 C.ar    1  UNL1        0.1054
      6 N          63.9222   91.1886   14.7260 N.ar    1  UNL1       -0.2290
      7 C          67.4010   93.0487   15.1603 C.3     1  UNL1        0.4212
      8 F          68.5779   93.7219   15.8019 F       1  UNL1       -0.1658
      9 F          66.8840   94.3824   14.7091 F       1  UNL1       -0.1658
     10 F          67.9180   91.7149   15.6115 F       1  UNL1       -0.1658
     11 N          62.6934   90.3557   12.5938 N.pl3   1  UNL1       -0.2821
     12 H          61.9111   90.8872   12.3203 H       1  UNL1        0.1551
     13 C          62.7385   85.9069   11.9188 C.ar    1  UNL1        0.1683
     14 C          63.5272   86.5023   13.0473 C.ar    1  UNL1        0.1299
     15 N          63.5121   87.9852   13.2722 N.ar    1  UNL1       -0.2251
     16 C          62.7084   88.8728   12.3688 C.ar    1  UNL1        0.1527
     17 C          61.9197   88.2773   11.2404 C.ar    1  UNL1        0.1340
     18 N          61.9348   86.7944   11.0154 N.ar    1  UNL1       -0.2290
     19 N          62.7686   82.9409   11.4689 N.1     1  UNL1       -0.1892
     20 C          62.7535   84.4239   11.6939 C.1     1  UNL1        0.1214
     21 N          67.2972   92.7293   12.1792 N.pl3   1  UNL1       -0.3306
     22 H          68.1462   92.9996   12.5980 H       1  UNL1        0.1469
     23 C          67.1286   92.8309   10.6921 C.3     1  UNL1        0.1184
     24 C          66.9157   94.1703   10.0513 C.3     1  UNL1        0.1503
     25 C          67.8210   94.6250    8.9452 C.3     1  UNL1        0.1003
     26 N          67.6081   95.9643    8.3043 N.3     1  UNL1       -0.2933
     27 C          66.4896   96.8491    8.7696 C.3     1  UNL1        0.1011
     28 C          65.5843   96.3944    9.8758 C.3     1  UNL1        0.1592
     29 O          65.7973   95.0550   10.5166 O.3     1  UNL1       -0.3516
     30 H          67.4548   95.7941    7.3104 H       1  UNL1        0.1234
@<TRIPOS>BOND
     1    19    20    3
     2    20    13    1
     3    13    14   ar
     4    14    15   ar
     5    15    16   ar
     6    16    11    1
     7    11     1    1
     8     1     2   ar
     9     2     3   ar
    10     3    21    1
    11    21    23    1
    12    24    23    1
    13    24    25    1
    14    25    26    1
    15    26    27    1
    16    27    28    1
    17    28    29    1
    18     3     4   ar
    19     4     7    1
    20     7     8    1
    21     7     9    1
    22     7    10    1
    23     4     5   ar
    24     5     6   ar
    25    16    17   ar
    26    17    18   ar
    27    18    13   ar
    28     6     1   ar
    29    29    24    1
    30    11    12    1
    31    21    22    1
    32    26    30    1
@<TRIPOS>MOLECULE
*****
 30 32 0 0 0
SMALL
GASTEIGER

@<TRIPOS>ATOM
      1 C          62.1533   86.9949   11.0978 C.ar    1  UNL1        0.1345
      2 C          62.5354   86.1928   12.3064 C.ar    1  UNL1        0.0487
      3 C          63.0210   84.7825   12.1479 C.ar    1  UNL1        0.0529
      4 C          63.1246   84.1742   10.7807 C.ar    1  UNL1        0.1037
      5 C          62.7425   84.9761    9.5721 C.ar    1  UNL1        0.1054
      6 N          62.2569   86.3865    9.7306 N.ar    1  UNL1       -0.2290
      7 C          63.6102   82.7638   10.6222 C.3     1  UNL1        0.4212
      8 F          64.0959   81.3535   10.4637 F       1  UNL1       -0.1658
      9 F          64.8921   83.2716   10.0316 F       1  UNL1       -0.1658
     10 F          62.3284   82.2560   11.2129 F       1  UNL1       -0.1658
     11 N          61.6677   88.4052   11.2563 N.pl3   1  UNL1       -0.2821
     12 H          60.7115   88.6119   11.1458 H       1  UNL1        0.1551
     13 C          64.5814   91.6913   12.2369 C.ar    1  UNL1        0.1683
     14 C          64.1947   90.6935   13.2880 C.ar    1  UNL1        0.1299
     15 N          63.2235   89.5981   12.9611 N.ar    1  UNL1       -0.2251
     16 C          62.6390   89.5005   11.5832 C.ar    1  UNL1        0.1527
     17 C          63.0257   90.4983   10.5321 C.ar    1  UNL1        0.1340
     18 N          63.9969   91.5937   10.8590 N.ar    1  UNL1       -0.2290
     19 N          66.5239   93.8821   12.8907 N.1     1  UNL1       -0.1892
     20 C          65.5527   92.7867   12.5638 C.1     1  UNL1        0.1214
     21 N          63.4031   83.9805   13.3566 N.pl3   1  UNL1       -0.3306
     22 H          63.0819   83.0551   13.4550 H       1  UNL1        0.1469
     23 C          64.2747   84.5885   14.4153 C.3     1  UNL1        0.1184
     24 C          63.6800   85.5105   15.4380 C.3     1  UNL1        0.1503
     25 C          62.7535   84.9699   16.4866 C.3     1  UNL1        0.1003
     26 N          62.1588   85.8919   17.5094 N.3     1  UNL1       -0.2933
     27 C          62.4905   87.3546   17.4836 C.3     1  UNL1        0.1011
     28 C          63.4169   87.8952   16.4351 C.3     1  UNL1        0.1592
     29 O          64.0117   86.9731   15.4123 O.3     1  UNL1       -0.3516
     30 H          62.4446   85.5412   18.4235 H       1  UNL1        0.1234
@<TRIPOS>BOND
     1    19    20    3
     2    20    13    1
     3    13    14   ar
     4    14    15   ar
     5    15    16   ar
     6    16    11    1
     7    11     1    1
     8     1     2   ar
     9     2     3   ar
    10     3    21    1
    11    21    23    1
    12    24    23    1
    13    24    25    1
    14    25    26    1
    15    26    27    1
    16    27    28    1
    17    28    29    1
    18     3     4   ar
    19     4     7    1
    20     7     8    1
    21     7     9    1
    22     7    10    1
    23     4     5   ar
    24     5     6   ar
    25    16    17   ar
    26    17    18   ar
    27    18    13   ar
    28     6     1   ar
    29    29    24    1
    30    11    12    1
    31    21    22    1
    32    26    30    1
