@<TRIPOS>MOLECULE
*****
 44 48 0 0 0
SMALL
GASTEIGER

@<TRIPOS>ATOM
      1 N          61.6886   88.4957   11.2603 N.ar    1  UNL1       -0.2470
      2 C          62.3747   89.8210   11.1089 C.ar    1  UNL1        0.2657
      3 O          61.8141   90.8536   10.1766 O.2     1  UNL1       -0.2668
      4 C          63.6215   90.1135   11.8899 C.ar    1  UNL1        0.0736
      5 C          64.1821   89.0809   12.8223 C.ar    1  UNL1        0.0847
      6 N          63.4960   87.7556   12.9736 N.ar    1  UNL1       -0.2755
      7 C          62.2493   87.4630   12.1926 C.ar    1  UNL1        0.3341
      8 O          61.5631   86.1377   12.3440 O.2     1  UNL1       -0.2462
      9 C          64.3076   91.4388   11.7386 C.ar    1  UNL1        0.0060
     10 C          64.2190   92.1854   10.4406 C.ar    1  UNL1       -0.0000
     11 C          64.9051   93.5106   10.2892 C.ar    1  UNL1       -0.0007
     12 C          65.6799   94.0894   11.4359 C.ar    1  UNL1        0.0213
     13 C          65.7685   93.3428   12.7339 C.ar    1  UNL1       -0.0007
     14 C          65.0824   92.0175   12.8852 C.ar    1  UNL1       -0.0000
     15 C          66.3660   95.4146   11.2845 C.3     1  UNL1        0.2350
     16 O          67.5456   95.5481   10.3676 O.3     1  UNL1       -0.4435
     17 C          67.6330   94.7047    9.1303 C.2     1  UNL1        0.3167
     18 O          67.1776   95.2574    7.8122 O.2     1  UNL1       -0.2501
     19 C          68.1757   93.3087    9.2109 C.3     1  UNL1        0.0991
     20 C          68.4614   92.0700   10.0072 C.3     1  UNL1        0.0116
     21 C          68.8300   92.1294    8.5544 C.3     1  UNL1        0.0116
     22 C          60.4418   88.2031   10.4793 C.3     1  UNL1        0.1334
     23 N          59.9284   89.1416    8.1117 N.3     1  UNL1       -0.3172
     24 C          60.5060   88.0688    8.9867 C.3     1  UNL1        0.0968
     25 H          59.5363   89.8812    8.6944 H       1  UNL1        0.1192
     26 H          59.1936   88.7441    7.5265 H       1  UNL1        0.1192
     27 C          61.1476   86.8618    8.3691 C.ar    1  UNL1       -0.0063
     28 C          60.4214   86.0849    7.3113 C.ar    1  UNL1       -0.0029
     29 C          61.0631   84.8779    6.6938 C.ar    1  UNL1       -0.0003
     30 C          62.4310   84.4478    7.1340 C.ar    1  UNL1       -0.0000
     31 C          63.1572   85.2247    8.1919 C.ar    1  UNL1       -0.0003
     32 C          62.5155   86.4317    8.8094 C.ar    1  UNL1       -0.0029
     33 C          64.0567   86.7229   13.9060 C.3     1  UNL1        0.1394
     34 C          63.5739   86.6520   15.3243 C.ar    1  UNL1        0.0319
     35 C          63.5218   87.8953   16.1620 C.ar    1  UNL1        0.1379
     36 F          63.9526   89.2095   15.5812 F       1  UNL1       -0.2044
     37 C          63.0390   87.8243   17.5804 C.ar    1  UNL1        0.0294
     38 C          62.6082   86.5101   18.1612 C.ar    1  UNL1        0.0022
     39 C          62.6602   85.2669   17.3236 C.ar    1  UNL1        0.0037
     40 C          63.1431   85.3378   15.9051 C.ar    1  UNL1        0.0714
     41 C          63.1951   84.0945   15.0675 C.3     1  UNL1        0.4184
     42 F          63.2471   82.8513   14.2299 F       1  UNL1       -0.1659
     43 F          61.7362   84.2453   14.7531 F       1  UNL1       -0.1659
     44 F          64.6540   83.9437   15.3819 F       1  UNL1       -0.1659
@<TRIPOS>BOND
     1    24    23    1
     2    24    22    1
     3    22     1    1
     4     1     2   ar
     5     2     3    2
     6     2     4   ar
     7     4     9    1
     8     9    10   ar
     9    10    11   ar
    10    11    12   ar
    11    12    15    1
    12    15    16    1
    13    16    17    1
    14    17    18    2
    15    17    19    1
    16    19    20    1
    17    20    21    1
    18    12    13   ar
    19    13    14   ar
    20     4     5   ar
    21     5     6   ar
    22     6    33    1
    23    33    34    1
    24    34    35   ar
    25    35    36    1
    26    35    37   ar
    27    37    38   ar
    28    38    39   ar
    29    39    40   ar
    30    40    41    1
    31    41    42    1
    32    41    43    1
    33    41    44    1
    34     6     7   ar
    35     7     8    2
    36    24    27    1
    37    27    28   ar
    38    28    29   ar
    39    29    30   ar
    40    30    31   ar
    41    31    32   ar
    42     7     1   ar
    43    32    27   ar
    44    14     9   ar
    45    40    34   ar
    46    21    19    1
    47    23    25    1
    48    23    26    1
@<TRIPOS>MOLECULE
*****
 44 48 0 0 0
SMALL
GASTEIGER

@<TRIPOS>ATOM
      1 N          61.4202   88.0460   11.1989 N.ar    1  UNL1       -0.2470
      2 C          62.1062   89.3783   11.1315 C.ar    1  UNL1        0.2657
      3 O          61.5204   90.4824   10.3023 O.2     1  UNL1       -0.2668
      4 C          63.3780   89.6063   11.8935 C.ar    1  UNL1        0.0736
      5 C          63.9637   88.5022   12.7228 C.ar    1  UNL1        0.0847
      6 N          63.2778   87.1700   12.7901 N.ar    1  UNL1       -0.2755
      7 C          62.0060   86.9419   12.0282 C.ar    1  UNL1        0.3341
      8 O          61.3200   85.6096   12.0955 O.2     1  UNL1       -0.2462
      9 C          64.0640   90.9386   11.8261 C.ar    1  UNL1        0.0060
     10 C          64.7804   91.4750   13.0299 C.ar    1  UNL1       -0.0000
     11 C          65.4664   92.8071   12.9627 C.ar    1  UNL1       -0.0007
     12 C          65.4361   93.6031   11.6916 C.ar    1  UNL1        0.0213
     13 C          64.7197   93.0667   10.4878 C.ar    1  UNL1       -0.0007
     14 C          64.0337   91.7345   10.5551 C.ar    1  UNL1       -0.0000
     15 C          66.1221   94.9353   11.6243 C.3     1  UNL1        0.2350
     16 O          67.3444   95.1073   10.7720 O.3     1  UNL1       -0.4435
     17 C          67.4308   94.4261    9.4385 C.2     1  UNL1        0.3167
     18 O          66.8960   95.1059    8.2129 O.2     1  UNL1       -0.2501
     19 C          68.0520   93.0650    9.3304 C.3     1  UNL1        0.0991
     20 C          68.8124   92.0434    8.5380 C.3     1  UNL1        0.0116
     21 C          68.3674   91.7293    9.9356 C.3     1  UNL1        0.0116
     22 C          60.1484   87.8179   10.4369 C.3     1  UNL1        0.1334
     23 N          59.3974   88.6153    8.0811 N.3     1  UNL1       -0.3172
     24 C          60.1839   87.6739    8.9443 C.3     1  UNL1        0.0968
     25 H          58.9017   89.2837    8.6709 H       1  UNL1        0.1192
     26 H          58.7241   88.0863    7.5268 H       1  UNL1        0.1192
     27 C          61.0060   86.5884    8.3149 C.ar    1  UNL1       -0.0063
     28 C          62.4032   86.3313    8.7958 C.ar    1  UNL1       -0.0029
     29 C          63.2252   85.2459    8.1664 C.ar    1  UNL1       -0.0003
     30 C          62.6499   84.4176    7.0560 C.ar    1  UNL1       -0.0000
     31 C          61.2526   84.6748    6.5750 C.ar    1  UNL1       -0.0003
     32 C          60.4306   85.7602    7.2044 C.ar    1  UNL1       -0.0029
     33 C          63.8635   86.0658   13.6194 C.3     1  UNL1        0.1394
     34 C          63.3383   84.6673   13.4849 C.ar    1  UNL1        0.0319
     35 C          63.5143   83.9207   12.1958 C.ar    1  UNL1        0.1379
     36 F          64.2156   84.5727   11.0412 F       1  UNL1       -0.2044
     37 C          62.9890   82.5221   12.0613 C.ar    1  UNL1        0.0294
     38 C          62.2877   81.8701   13.2159 C.ar    1  UNL1        0.0022
     39 C          62.1117   82.6166   14.5049 C.ar    1  UNL1        0.0037
     40 C          62.6370   84.0152   14.6395 C.ar    1  UNL1        0.0714
     41 C          62.4609   84.7617   15.9285 C.3     1  UNL1        0.4184
     42 F          62.2849   85.5083   17.2176 F       1  UNL1       -0.1659
     43 F          63.9150   84.5659   16.2405 F       1  UNL1       -0.1659
     44 F          61.0069   84.9576   15.6165 F       1  UNL1       -0.1659
@<TRIPOS>BOND
     1    24    23    1
     2    24    22    1
     3    22     1    1
     4     1     2   ar
     5     2     3    2
     6     2     4   ar
     7     4     9    1
     8     9    10   ar
     9    10    11   ar
    10    11    12   ar
    11    12    15    1
    12    15    16    1
    13    16    17    1
    14    17    18    2
    15    17    19    1
    16    19    20    1
    17    20    21    1
    18    12    13   ar
    19    13    14   ar
    20     4     5   ar
    21     5     6   ar
    22     6    33    1
    23    33    34    1
    24    34    35   ar
    25    35    36    1
    26    35    37   ar
    27    37    38   ar
    28    38    39   ar
    29    39    40   ar
    30    40    41    1
    31    41    42    1
    32    41    43    1
    33    41    44    1
    34     6     7   ar
    35     7     8    2
    36    24    27    1
    37    27    28   ar
    38    28    29   ar
    39    29    30   ar
    40    30    31   ar
    41    31    32   ar
    42     7     1   ar
    43    32    27   ar
    44    14     9   ar
    45    40    34   ar
    46    21    19    1
    47    23    25    1
    48    23    26    1
@<TRIPOS>MOLECULE
*****
 44 48 0 0 0
SMALL
GASTEIGER

@<TRIPOS>ATOM
      1 N          60.2197   88.4217    9.7506 N.ar    1  UNL1       -0.2470
      2 C          60.9116   87.1081    9.9641 C.ar    1  UNL1        0.2657
      3 O          60.4746   85.8965    9.1953 O.2     1  UNL1       -0.2668
      4 C          62.0407   87.0062   10.9464 C.ar    1  UNL1        0.0736
      5 C          62.4777   88.2178   11.7151 C.ar    1  UNL1        0.0847
      6 N          61.7857   89.5313   11.5016 N.ar    1  UNL1       -0.2755
      7 C          60.6567   89.6333   10.5194 C.ar    1  UNL1        0.3341
      8 O          59.9647   90.9469   10.3058 O.2     1  UNL1       -0.2462
      9 C          62.7327   85.6925   11.1599 C.ar    1  UNL1        0.0060
     10 C          63.0641   85.2367   12.5500 C.ar    1  UNL1       -0.0000
     11 C          63.7561   83.9231   12.7636 C.ar    1  UNL1       -0.0007
     12 C          64.1167   83.0653   11.5870 C.ar    1  UNL1        0.0213
     13 C          63.7854   83.5212   10.1969 C.ar    1  UNL1       -0.0007
     14 C          63.0933   84.8348    9.9834 C.ar    1  UNL1       -0.0000
     15 C          64.8087   81.7518   11.8006 C.3     1  UNL1        0.2350
     16 O          64.2704   80.7747   12.8034 O.3     1  UNL1       -0.4435
     17 C          62.8720   80.2505   12.6637 C.2     1  UNL1        0.3167
     18 O          62.5666   79.1897   11.6479 O.2     1  UNL1       -0.2501
     19 C          61.7788   80.7868   13.5397 C.3     1  UNL1        0.0991
     20 C          61.2572   81.8466   14.4641 C.3     1  UNL1        0.0116
     21 C          60.4072   80.6560   14.1325 C.3     1  UNL1        0.0116
     22 C          59.0906   88.5237    8.7683 C.3     1  UNL1        0.1334
     23 N          59.7568   87.0403    6.7421 N.3     1  UNL1       -0.3172
     24 C          59.3582   88.3744    7.3000 C.3     1  UNL1        0.0968
     25 H          59.7967   86.3546    7.4962 H       1  UNL1        0.1192
     26 H          60.6741   87.1160    6.3025 H       1  UNL1        0.1192
     27 C          59.2271   89.5593    6.3894 C.ar    1  UNL1       -0.0063
     28 C          60.4507   90.1727    5.7759 C.ar    1  UNL1       -0.0029
     29 C          60.3195   91.3575    4.8654 C.ar    1  UNL1       -0.0003
     30 C          58.9648   91.9288    4.5684 C.ar    1  UNL1       -0.0000
     31 C          57.7412   91.3154    5.1819 C.ar    1  UNL1       -0.0003
     32 C          57.8723   90.1306    6.0924 C.ar    1  UNL1       -0.0029
     33 C          62.2227   90.7430   12.2704 C.3     1  UNL1        0.1394
     34 C          63.6424   91.2183   12.1776 C.ar    1  UNL1        0.0319
     35 C          64.1300   91.8840   10.9249 C.ar    1  UNL1        0.1379
     36 F          63.1980   92.0743    9.7651 F       1  UNL1       -0.2044
     37 C          65.5497   92.3593   10.8321 C.ar    1  UNL1        0.0294
     38 C          66.4817   92.1690   11.9919 C.ar    1  UNL1        0.0022
     39 C          65.9941   91.5034   13.2445 C.ar    1  UNL1        0.0037
     40 C          64.5744   91.0280   13.3374 C.ar    1  UNL1        0.0714
     41 C          64.0868   90.3624   14.5900 C.3     1  UNL1        0.4184
     42 F          63.5992   89.6967   15.8426 F       1  UNL1       -0.1659
     43 F          63.7163   91.7007   15.1570 F       1  UNL1       -0.1659
     44 F          64.4572   89.0240   14.0230 F       1  UNL1       -0.1659
@<TRIPOS>BOND
     1    24    23    1
     2    24    22    1
     3    22     1    1
     4     1     2   ar
     5     2     3    2
     6     2     4   ar
     7     4     9    1
     8     9    10   ar
     9    10    11   ar
    10    11    12   ar
    11    12    15    1
    12    15    16    1
    13    16    17    1
    14    17    18    2
    15    17    19    1
    16    19    20    1
    17    20    21    1
    18    12    13   ar
    19    13    14   ar
    20     4     5   ar
    21     5     6   ar
    22     6    33    1
    23    33    34    1
    24    34    35   ar
    25    35    36    1
    26    35    37   ar
    27    37    38   ar
    28    38    39   ar
    29    39    40   ar
    30    40    41    1
    31    41    42    1
    32    41    43    1
    33    41    44    1
    34     6     7   ar
    35     7     8    2
    36    24    27    1
    37    27    28   ar
    38    28    29   ar
    39    29    30   ar
    40    30    31   ar
    41    31    32   ar
    42     7     1   ar
    43    32    27   ar
    44    14     9   ar
    45    40    34   ar
    46    21    19    1
    47    23    25    1
    48    23    26    1
@<TRIPOS>MOLECULE
*****
 44 48 0 0 0
SMALL
GASTEIGER

@<TRIPOS>ATOM
      1 N          61.6770   86.9125   11.6125 N.ar    1  UNL1       -0.2470
      2 C          62.1453   88.0949   12.4078 C.ar    1  UNL1        0.2657
      3 O          61.4452   89.4145   12.2727 O.2     1  UNL1       -0.2668
      4 C          63.3138   87.9576   13.3383 C.ar    1  UNL1        0.0736
      5 C          64.0140   86.6380   13.4734 C.ar    1  UNL1        0.0847
      6 N          63.5457   85.4556   12.6781 N.ar    1  UNL1       -0.2755
      7 C          62.3772   85.5928   11.7477 C.ar    1  UNL1        0.3341
      8 O          61.9088   84.4104   10.9523 O.2     1  UNL1       -0.2462
      9 C          63.7822   89.1401   14.1336 C.ar    1  UNL1        0.0060
     10 C          63.4067   89.2672   15.5803 C.ar    1  UNL1       -0.0000
     11 C          63.8750   90.4496   16.3756 C.ar    1  UNL1       -0.0007
     12 C          64.7189   91.5049   15.7243 C.ar    1  UNL1        0.0213
     13 C          65.0945   91.3778   14.2777 C.ar    1  UNL1       -0.0007
     14 C          64.6261   90.1953   13.4823 C.ar    1  UNL1       -0.0000
     15 C          65.1873   92.6873   16.5197 C.3     1  UNL1        0.2350
     16 O          66.5744   93.2227   16.3214 O.3     1  UNL1       -0.4435
     17 C          67.0871   93.4825   14.9360 C.2     1  UNL1        0.3167
     18 O          66.4715   94.5646   14.0991 O.2     1  UNL1       -0.2501
     19 C          68.2154   92.6605   14.3873 C.3     1  UNL1        0.0991
     20 C          68.7287   91.6515   13.4032 C.3     1  UNL1        0.0116
     21 C          69.6565   92.2456   14.4212 C.3     1  UNL1        0.0116
     22 C          60.5085   87.0497   10.6820 C.3     1  UNL1        0.1334
     23 N          60.4794   88.8078    8.7694 N.3     1  UNL1       -0.3172
     24 C          60.7337   87.4074    9.2429 C.3     1  UNL1        0.0968
     25 H          60.1609   89.3788    9.5523 H       1  UNL1        0.1192
     26 H          59.7631   88.7964    8.0433 H       1  UNL1        0.1192
     27 C          61.2133   86.3646    8.2770 C.ar    1  UNL1       -0.0063
     28 C          60.2577   85.7576    7.2930 C.ar    1  UNL1       -0.0029
     29 C          60.7373   84.7149    6.3273 C.ar    1  UNL1       -0.0003
     30 C          62.1725   84.2792    6.3455 C.ar    1  UNL1       -0.0000
     31 C          63.1281   84.8862    7.3295 C.ar    1  UNL1       -0.0003
     32 C          62.6485   85.9289    8.2953 C.ar    1  UNL1       -0.0029
     33 C          64.2458   84.1359   12.8133 C.3     1  UNL1        0.1394
     34 C          63.4495   82.8827   13.0261 C.ar    1  UNL1        0.0319
     35 C          63.4459   81.8093   11.9783 C.ar    1  UNL1        0.1379
     36 F          64.2386   81.9892   10.7176 F       1  UNL1       -0.2044
     37 C          62.6495   80.5561   12.1911 C.ar    1  UNL1        0.0294
     38 C          61.8568   80.3762   13.4518 C.ar    1  UNL1        0.0022
     39 C          61.8605   81.4495   14.4996 C.ar    1  UNL1        0.0037
     40 C          62.6568   82.7028   14.2868 C.ar    1  UNL1        0.0714
     41 C          62.6604   83.7761   15.3346 C.3     1  UNL1        0.4184
     42 F          62.6640   84.8494   16.3824 F       1  UNL1       -0.1659
     43 F          63.9872   83.2850   15.8331 F       1  UNL1       -0.1659
     44 F          61.3337   84.2672   14.8361 F       1  UNL1       -0.1659
@<TRIPOS>BOND
     1    24    23    1
     2    24    22    1
     3    22     1    1
     4     1     2   ar
     5     2     3    2
     6     2     4   ar
     7     4     9    1
     8     9    10   ar
     9    10    11   ar
    10    11    12   ar
    11    12    15    1
    12    15    16    1
    13    16    17    1
    14    17    18    2
    15    17    19    1
    16    19    20    1
    17    20    21    1
    18    12    13   ar
    19    13    14   ar
    20     4     5   ar
    21     5     6   ar
    22     6    33    1
    23    33    34    1
    24    34    35   ar
    25    35    36    1
    26    35    37   ar
    27    37    38   ar
    28    38    39   ar
    29    39    40   ar
    30    40    41    1
    31    41    42    1
    32    41    43    1
    33    41    44    1
    34     6     7   ar
    35     7     8    2
    36    24    27    1
    37    27    28   ar
    38    28    29   ar
    39    29    30   ar
    40    30    31   ar
    41    31    32   ar
    42     7     1   ar
    43    32    27   ar
    44    14     9   ar
    45    40    34   ar
    46    21    19    1
    47    23    25    1
    48    23    26    1
@<TRIPOS>MOLECULE
*****
 44 48 0 0 0
SMALL
GASTEIGER

@<TRIPOS>ATOM
      1 N          60.3432   89.0301    9.5408 N.ar    1  UNL1       -0.2470
      2 C          61.3930   90.0022    9.9913 C.ar    1  UNL1        0.2657
      3 O          61.3860   91.4086    9.4699 O.2     1  UNL1       -0.2668
      4 C          62.4498   89.5678   10.9631 C.ar    1  UNL1        0.0736
      5 C          62.4568   88.1614   11.4845 C.ar    1  UNL1        0.0847
      6 N          61.4070   87.1893   11.0340 N.ar    1  UNL1       -0.2755
      7 C          60.3502   87.6236   10.0622 C.ar    1  UNL1        0.3341
      8 O          59.3003   86.6515    9.6117 O.2     1  UNL1       -0.2462
      9 C          63.4996   90.5399   11.4136 C.ar    1  UNL1        0.0060
     10 C          64.1161   91.4881   10.4283 C.ar    1  UNL1       -0.0000
     11 C          65.1659   92.4602   10.8787 C.ar    1  UNL1       -0.0007
     12 C          65.5993   92.4841   12.3146 C.ar    1  UNL1        0.0213
     13 C          64.9828   91.5359   13.2999 C.ar    1  UNL1       -0.0007
     14 C          63.9330   90.5638   12.8494 C.ar    1  UNL1       -0.0000
     15 C          66.6491   93.4562   12.7650 C.3     1  UNL1        0.2350
     16 O          66.4271   94.9303   12.5987 O.3     1  UNL1       -0.4435
     17 C          66.2330   95.5096   11.2288 C.2     1  UNL1        0.3167
     18 O          65.1887   96.5620   11.0005 O.2     1  UNL1       -0.2501
     19 C          67.0832   95.0367   10.0871 C.3     1  UNL1        0.0991
     20 C          67.5318   95.1646    8.6615 C.3     1  UNL1        0.0116
     21 C          68.1071   94.0896    9.5352 C.3     1  UNL1        0.0116
     22 C          59.2864   89.4645    8.5689 C.3     1  UNL1        0.1334
     23 N          59.5348   87.6352    6.7408 N.3     1  UNL1       -0.3172
     24 C          59.3926   89.0786    7.1233 C.3     1  UNL1        0.0968
     25 H          59.5409   87.0593    7.5828 H       1  UNL1        0.1192
     26 H          60.4088   87.5027    6.2320 H       1  UNL1        0.1192
     27 C          59.3568   90.1362    6.0601 C.ar    1  UNL1       -0.0063
     28 C          60.6312   90.5960    5.4164 C.ar    1  UNL1       -0.0029
     29 C          60.5953   91.6535    4.3532 C.ar    1  UNL1       -0.0003
     30 C          59.2850   92.2513    3.9339 C.ar    1  UNL1       -0.0000
     31 C          58.0106   91.7915    4.5777 C.ar    1  UNL1       -0.0003
     32 C          58.0465   90.7339    5.6408 C.ar    1  UNL1       -0.0029
     33 C          61.4140   85.7828   11.5554 C.3     1  UNL1        0.1394
     34 C          62.5247   84.8483   11.1774 C.ar    1  UNL1        0.0319
     35 C          62.9125   84.6878    9.7373 C.ar    1  UNL1        0.1379
     36 F          62.1894   85.4619    8.6752 F       1  UNL1       -0.2044
     37 C          64.0232   83.7534    9.3593 C.ar    1  UNL1        0.0294
     38 C          64.7463   82.9793   10.4214 C.ar    1  UNL1        0.0022
     39 C          64.3586   83.1398   11.8615 C.ar    1  UNL1        0.0037
     40 C          63.2478   84.0743   12.2395 C.ar    1  UNL1        0.0714
     41 C          62.8601   84.2348   13.6796 C.3     1  UNL1        0.4184
     42 F          62.4724   84.3952   15.1197 F       1  UNL1       -0.1659
     43 F          63.6339   85.5180   13.7450 F       1  UNL1       -0.1659
     44 F          62.0862   82.9515   13.6143 F       1  UNL1       -0.1659
@<TRIPOS>BOND
     1    24    23    1
     2    24    22    1
     3    22     1    1
     4     1     2   ar
     5     2     3    2
     6     2     4   ar
     7     4     9    1
     8     9    10   ar
     9    10    11   ar
    10    11    12   ar
    11    12    15    1
    12    15    16    1
    13    16    17    1
    14    17    18    2
    15    17    19    1
    16    19    20    1
    17    20    21    1
    18    12    13   ar
    19    13    14   ar
    20     4     5   ar
    21     5     6   ar
    22     6    33    1
    23    33    34    1
    24    34    35   ar
    25    35    36    1
    26    35    37   ar
    27    37    38   ar
    28    38    39   ar
    29    39    40   ar
    30    40    41    1
    31    41    42    1
    32    41    43    1
    33    41    44    1
    34     6     7   ar
    35     7     8    2
    36    24    27    1
    37    27    28   ar
    38    28    29   ar
    39    29    30   ar
    40    30    31   ar
    41    31    32   ar
    42     7     1   ar
    43    32    27   ar
    44    14     9   ar
    45    40    34   ar
    46    21    19    1
    47    23    25    1
    48    23    26    1
@<TRIPOS>MOLECULE
*****
 44 48 0 0 0
SMALL
GASTEIGER

@<TRIPOS>ATOM
      1 N          60.3188   88.9714    9.5016 N.ar    1  UNL1       -0.2470
      2 C          61.3465   89.9360   10.0146 C.ar    1  UNL1        0.2657
      3 O          61.3416   91.3593    9.5412 O.2     1  UNL1       -0.2668
      4 C          62.3792   89.4773   11.0010 C.ar    1  UNL1        0.0736
      5 C          62.3842   88.0540   11.4744 C.ar    1  UNL1        0.0847
      6 N          61.3564   87.0894   10.9614 N.ar    1  UNL1       -0.2755
      7 C          60.3237   87.5481    9.9750 C.ar    1  UNL1        0.3341
      8 O          59.2958   86.5835    9.4620 O.2     1  UNL1       -0.2462
      9 C          63.4071   90.4419   11.5140 C.ar    1  UNL1        0.0060
     10 C          63.8265   90.3957   12.9534 C.ar    1  UNL1       -0.0000
     11 C          64.8543   91.3602   13.4665 C.ar    1  UNL1       -0.0007
     12 C          65.4628   92.3710   12.5401 C.ar    1  UNL1        0.0213
     13 C          65.0434   92.4172   11.1007 C.ar    1  UNL1       -0.0007
     14 C          64.0155   91.4526   10.5877 C.ar    1  UNL1       -0.0000
     15 C          66.4906   93.3355   13.0532 C.3     1  UNL1        0.2350
     16 O          66.3111   93.9787   14.3964 O.3     1  UNL1       -0.4435
     17 C          66.7530   93.2604   15.6368 C.2     1  UNL1        0.3167
     18 O          65.7330   92.6762   16.5688 O.2     1  UNL1       -0.2501
     19 C          68.2147   93.1265   15.9455 C.3     1  UNL1        0.0991
     20 C          69.3686   92.3034   16.4366 C.3     1  UNL1        0.0116
     21 C          69.5927   93.7174   15.9890 C.3     1  UNL1        0.0116
     22 C          59.2860   89.4302    8.5152 C.3     1  UNL1        0.1334
     23 N          59.5797   87.6294    6.6656 N.3     1  UNL1       -0.3172
     24 C          59.4189   89.0660    7.0662 C.3     1  UNL1        0.0968
     25 H          59.5773   87.0417    7.4992 H       1  UNL1        0.1192
     26 H          60.4630   87.5117    6.1691 H       1  UNL1        0.1192
     27 C          59.3910   90.1384    6.0177 C.ar    1  UNL1       -0.0063
     28 C          58.0841   90.7431    5.5979 C.ar    1  UNL1       -0.0029
     29 C          58.0563   91.8154    4.5494 C.ar    1  UNL1       -0.0003
     30 C          59.3353   92.2830    3.9208 C.ar    1  UNL1       -0.0000
     31 C          60.6423   91.6784    4.3405 C.ar    1  UNL1       -0.0003
     32 C          60.6701   90.6060    5.3890 C.ar    1  UNL1       -0.0029
     33 C          61.3613   85.6661   11.4348 C.3     1  UNL1        0.1394
     34 C          62.5102   84.7652   11.0907 C.ar    1  UNL1        0.0319
     35 C          62.9574   84.6312    9.6652 C.ar    1  UNL1        0.1379
     36 F          62.2557   85.3983    8.5838 F       1  UNL1       -0.2044
     37 C          64.1063   83.7303    9.3210 C.ar    1  UNL1        0.0294
     38 C          64.8079   82.9633   10.4024 C.ar    1  UNL1        0.0022
     39 C          64.3607   83.0972   11.8279 C.ar    1  UNL1        0.0037
     40 C          63.2118   83.9981   12.1721 C.ar    1  UNL1        0.0714
     41 C          62.7646   84.1320   13.5976 C.3     1  UNL1        0.4184
     42 F          62.3175   84.2659   15.0230 F       1  UNL1       -0.1659
     43 F          62.0325   82.8272   13.4904 F       1  UNL1       -0.1659
     44 F          63.4968   85.4368   13.7047 F       1  UNL1       -0.1659
@<TRIPOS>BOND
     1    24    23    1
     2    24    22    1
     3    22     1    1
     4     1     2   ar
     5     2     3    2
     6     2     4   ar
     7     4     9    1
     8     9    10   ar
     9    10    11   ar
    10    11    12   ar
    11    12    15    1
    12    15    16    1
    13    16    17    1
    14    17    18    2
    15    17    19    1
    16    19    20    1
    17    20    21    1
    18    12    13   ar
    19    13    14   ar
    20     4     5   ar
    21     5     6   ar
    22     6    33    1
    23    33    34    1
    24    34    35   ar
    25    35    36    1
    26    35    37   ar
    27    37    38   ar
    28    38    39   ar
    29    39    40   ar
    30    40    41    1
    31    41    42    1
    32    41    43    1
    33    41    44    1
    34     6     7   ar
    35     7     8    2
    36    24    27    1
    37    27    28   ar
    38    28    29   ar
    39    29    30   ar
    40    30    31   ar
    41    31    32   ar
    42     7     1   ar
    43    32    27   ar
    44    14     9   ar
    45    40    34   ar
    46    21    19    1
    47    23    25    1
    48    23    26    1
@<TRIPOS>MOLECULE
*****
 44 48 0 0 0
SMALL
GASTEIGER

@<TRIPOS>ATOM
      1 N          63.5952   86.7160   13.1314 N.ar    1  UNL1       -0.2470
      2 C          62.7264   86.8414   11.9151 C.ar    1  UNL1        0.2657
      3 O          62.2210   85.6097   11.2242 O.2     1  UNL1       -0.2668
      4 C          62.3630   88.1986   11.3897 C.ar    1  UNL1        0.0736
      5 C          62.8685   89.4303   12.0806 C.ar    1  UNL1        0.0847
      6 N          63.7373   89.3049   13.2969 N.ar    1  UNL1       -0.2755
      7 C          64.1007   87.9478   13.8223 C.ar    1  UNL1        0.3341
      8 O          64.9695   87.8223   15.0386 O.2     1  UNL1       -0.2462
      9 C          61.4942   88.3240   10.1734 C.ar    1  UNL1        0.0060
     10 C          60.9523   89.6644    9.7738 C.ar    1  UNL1       -0.0000
     11 C          60.0834   89.7899    8.5575 C.ar    1  UNL1       -0.0007
     12 C          59.7565   88.5749    7.7407 C.ar    1  UNL1        0.0213
     13 C          60.2984   87.2345    8.1403 C.ar    1  UNL1       -0.0007
     14 C          61.1673   87.1091    9.3567 C.ar    1  UNL1       -0.0000
     15 C          58.8877   88.7004    6.5245 C.3     1  UNL1        0.2350
     16 O          57.7788   89.7102    6.4958 O.3     1  UNL1       -0.4435
     17 C          57.8211   90.8428    5.5134 C.2     1  UNL1        0.3167
     18 O          56.5473   91.5000    5.0710 O.2     1  UNL1       -0.2501
     19 C          59.1372   91.3184    4.9732 C.3     1  UNL1        0.0991
     20 C          60.6283   91.1845    4.8811 C.3     1  UNL1        0.0116
     21 C          59.9255   92.2761    4.1298 C.3     1  UNL1        0.0116
     22 C          63.9587   85.3588   13.6568 C.3     1  UNL1        0.1334
     23 N          61.9711   84.9296   15.2740 N.3     1  UNL1       -0.3172
     24 C          62.8908   84.4505   14.1902 C.3     1  UNL1        0.0968
     25 H          62.2127   85.8880   15.5259 H       1  UNL1        0.1192
     26 H          62.0676   84.3283   16.0923 H       1  UNL1        0.1192
     27 C          62.7427   83.0629   13.6399 C.ar    1  UNL1       -0.0063
     28 C          61.9704   82.0305   14.4064 C.ar    1  UNL1       -0.0029
     29 C          61.8223   80.6430   13.8560 C.ar    1  UNL1       -0.0003
     30 C          62.4465   80.2880   12.5391 C.ar    1  UNL1       -0.0000
     31 C          63.2188   81.3204   11.7725 C.ar    1  UNL1       -0.0003
     32 C          63.3669   82.7079   12.3229 C.ar    1  UNL1       -0.0029
     33 C          64.2427   90.5367   13.9878 C.3     1  UNL1        0.1394
     34 C          64.9640   91.5933   13.2047 C.ar    1  UNL1        0.0319
     35 C          64.5265   91.9215   11.8079 C.ar    1  UNL1        0.1379
     36 F          63.3677   91.1931   11.1943 F       1  UNL1       -0.2044
     37 C          65.2478   92.9781   11.0248 C.ar    1  UNL1        0.0294
     38 C          66.4067   93.7065   11.6384 C.ar    1  UNL1        0.0022
     39 C          66.8442   93.3783   13.0351 C.ar    1  UNL1        0.0037
     40 C          66.1228   92.3217   13.8183 C.ar    1  UNL1        0.0714
     41 C          66.5604   91.9935   15.2150 C.3     1  UNL1        0.4184
     42 F          66.9979   91.6653   16.6117 F       1  UNL1       -0.1659
     43 F          67.6140   91.0759   14.6693 F       1  UNL1       -0.1659
     44 F          65.5067   92.9111   15.7607 F       1  UNL1       -0.1659
@<TRIPOS>BOND
     1    24    23    1
     2    24    22    1
     3    22     1    1
     4     1     2   ar
     5     2     3    2
     6     2     4   ar
     7     4     9    1
     8     9    10   ar
     9    10    11   ar
    10    11    12   ar
    11    12    15    1
    12    15    16    1
    13    16    17    1
    14    17    18    2
    15    17    19    1
    16    19    20    1
    17    20    21    1
    18    12    13   ar
    19    13    14   ar
    20     4     5   ar
    21     5     6   ar
    22     6    33    1
    23    33    34    1
    24    34    35   ar
    25    35    36    1
    26    35    37   ar
    27    37    38   ar
    28    38    39   ar
    29    39    40   ar
    30    40    41    1
    31    41    42    1
    32    41    43    1
    33    41    44    1
    34     6     7   ar
    35     7     8    2
    36    24    27    1
    37    27    28   ar
    38    28    29   ar
    39    29    30   ar
    40    30    31   ar
    41    31    32   ar
    42     7     1   ar
    43    32    27   ar
    44    14     9   ar
    45    40    34   ar
    46    21    19    1
    47    23    25    1
    48    23    26    1
@<TRIPOS>MOLECULE
*****
 44 48 0 0 0
SMALL
GASTEIGER

@<TRIPOS>ATOM
      1 N          64.2140   88.2135   13.8052 N.ar    1  UNL1       -0.2470
      2 C          63.2742   88.0418   12.6488 C.ar    1  UNL1        0.2657
      3 O          62.8135   86.6700   12.2540 O.2     1  UNL1       -0.2668
      4 C          62.7951   89.2420   11.8872 C.ar    1  UNL1        0.0736
      5 C          63.2558   90.6138   12.2821 C.ar    1  UNL1        0.0847
      6 N          64.1956   90.7855   13.4385 N.ar    1  UNL1       -0.2755
      7 C          64.6747   89.5853   14.2000 C.ar    1  UNL1        0.3341
      8 O          65.6145   89.7569   15.3565 O.2     1  UNL1       -0.2462
      9 C          61.8553   89.0704   10.7308 C.ar    1  UNL1        0.0060
     10 C          60.8483   90.1373   10.4181 C.ar    1  UNL1       -0.0000
     11 C          59.9084   89.9657    9.2617 C.ar    1  UNL1       -0.0007
     12 C          59.9756   88.7273    8.4179 C.ar    1  UNL1        0.0213
     13 C          60.9826   87.6604    8.7306 C.ar    1  UNL1       -0.0007
     14 C          61.9225   87.8320    9.8871 C.ar    1  UNL1       -0.0000
     15 C          59.0358   88.5557    7.2616 C.3     1  UNL1        0.2350
     16 O          59.3639   89.1665    5.9314 O.3     1  UNL1       -0.4435
     17 C          58.7107   90.4506    5.5141 C.2     1  UNL1        0.3167
     18 O          57.2766   90.7121    5.8676 O.2     1  UNL1       -0.2501
     19 C          59.4916   91.4734    4.7433 C.3     1  UNL1        0.0991
     20 C          60.7808   91.9300    4.1273 C.3     1  UNL1        0.0116
     21 C          59.5550   92.7884    4.0244 C.3     1  UNL1        0.0116
     22 C          64.6931   87.0133   14.5668 C.3     1  UNL1        0.1334
     23 N          62.9115   86.5599   16.4027 N.3     1  UNL1       -0.3172
     24 C          63.7028   86.0931   15.2169 C.3     1  UNL1        0.0968
     25 H          63.1723   87.5197   16.6290 H       1  UNL1        0.1192
     26 H          63.1080   85.9568   17.2014 H       1  UNL1        0.1192
     27 C          63.5039   84.7062   14.6814 C.ar    1  UNL1       -0.0063
     28 C          64.5180   84.1086   13.7516 C.ar    1  UNL1       -0.0029
     29 C          64.3190   82.7217   13.2161 C.ar    1  UNL1       -0.0003
     30 C          63.1059   81.9324   13.6103 C.ar    1  UNL1       -0.0000
     31 C          62.0918   82.5299   14.5400 C.ar    1  UNL1       -0.0003
     32 C          62.2908   83.9168   15.0756 C.ar    1  UNL1       -0.0029
     33 C          64.6563   92.1573   13.8333 C.3     1  UNL1        0.1394
     34 C          66.0263   92.3505   14.4126 C.ar    1  UNL1        0.0319
     35 C          66.2004   92.4913   15.8959 C.ar    1  UNL1        0.1379
     36 F          65.0044   92.4390   16.7997 F       1  UNL1       -0.2044
     37 C          67.5704   92.6846   16.4753 C.ar    1  UNL1        0.0294
     38 C          68.7664   92.7370   15.5715 C.ar    1  UNL1        0.0022
     39 C          68.5924   92.5961   14.0883 C.ar    1  UNL1        0.0037
     40 C          67.2223   92.4029   13.5088 C.ar    1  UNL1        0.0714
     41 C          67.0483   92.2620   12.0257 C.3     1  UNL1        0.4184
     42 F          66.8743   92.1212   10.5425 F       1  UNL1       -0.1659
     43 F          65.9357   93.2673   12.0607 F       1  UNL1       -0.1659
     44 F          68.1610   91.2567   11.9906 F       1  UNL1       -0.1659
@<TRIPOS>BOND
     1    24    23    1
     2    24    22    1
     3    22     1    1
     4     1     2   ar
     5     2     3    2
     6     2     4   ar
     7     4     9    1
     8     9    10   ar
     9    10    11   ar
    10    11    12   ar
    11    12    15    1
    12    15    16    1
    13    16    17    1
    14    17    18    2
    15    17    19    1
    16    19    20    1
    17    20    21    1
    18    12    13   ar
    19    13    14   ar
    20     4     5   ar
    21     5     6   ar
    22     6    33    1
    23    33    34    1
    24    34    35   ar
    25    35    36    1
    26    35    37   ar
    27    37    38   ar
    28    38    39   ar
    29    39    40   ar
    30    40    41    1
    31    41    42    1
    32    41    43    1
    33    41    44    1
    34     6     7   ar
    35     7     8    2
    36    24    27    1
    37    27    28   ar
    38    28    29   ar
    39    29    30   ar
    40    30    31   ar
    41    31    32   ar
    42     7     1   ar
    43    32    27   ar
    44    14     9   ar
    45    40    34   ar
    46    21    19    1
    47    23    25    1
    48    23    26    1
@<TRIPOS>MOLECULE
*****
 44 48 0 0 0
SMALL
GASTEIGER

@<TRIPOS>ATOM
      1 N          61.6227   87.1505   11.6019 N.ar    1  UNL1       -0.2470
      2 C          62.2938   88.4596   11.8948 C.ar    1  UNL1        0.2657
      3 O          61.7164   89.7353   11.3570 O.2     1  UNL1       -0.2668
      4 C          63.5423   88.4930   12.7255 C.ar    1  UNL1        0.0736
      5 C          64.1197   87.2173   13.2633 C.ar    1  UNL1        0.0847
      6 N          63.4485   85.9082   12.9704 N.ar    1  UNL1       -0.2755
      7 C          62.2000   85.8748   12.1397 C.ar    1  UNL1        0.3341
      8 O          61.5288   84.5656   11.8468 O.2     1  UNL1       -0.2462
      9 C          64.2135   89.8021   13.0184 C.ar    1  UNL1        0.0060
     10 C          64.0518   90.9558   12.0735 C.ar    1  UNL1       -0.0000
     11 C          64.7230   92.2648   12.3664 C.ar    1  UNL1       -0.0007
     12 C          65.5558   92.4203   13.6043 C.ar    1  UNL1        0.0213
     13 C          65.7175   91.2666   14.5492 C.ar    1  UNL1       -0.0007
     14 C          65.0463   89.9575   14.2563 C.ar    1  UNL1       -0.0000
     15 C          66.2269   93.7294   13.8972 C.3     1  UNL1        0.2350
     16 O          66.3763   94.7548   12.8127 O.3     1  UNL1       -0.4435
     17 C          66.3147   94.3383   11.3730 C.2     1  UNL1        0.3167
     18 O          65.3057   94.9616   10.4544 O.2     1  UNL1       -0.2501
     19 C          67.2619   93.2985   10.8518 C.3     1  UNL1        0.0991
     20 C          68.0442   92.7058    9.7176 C.3     1  UNL1        0.0116
     21 C          68.1201   92.0904   11.0834 C.3     1  UNL1        0.0116
     22 C          60.3741   87.1171   10.7712 C.3     1  UNL1        0.1334
     23 N          59.8722   88.6285    8.7185 N.3     1  UNL1       -0.3172
     24 C          60.4488   87.3692    9.2945 C.3     1  UNL1        0.0968
     25 H          59.4728   89.1934    9.4680 H       1  UNL1        0.1192
     26 H          59.1431   88.3919    8.0456 H       1  UNL1        0.1192
     27 C          61.1002   86.3621    8.3936 C.ar    1  UNL1       -0.0063
     28 C          62.5359   85.9835    8.6061 C.ar    1  UNL1       -0.0029
     29 C          63.1872   84.9764    7.7052 C.ar    1  UNL1       -0.0003
     30 C          62.4027   84.3479    6.5919 C.ar    1  UNL1       -0.0000
     31 C          60.9669   84.7264    6.3794 C.ar    1  UNL1       -0.0003
     32 C          60.3156   85.7335    7.2803 C.ar    1  UNL1       -0.0029
     33 C          64.0259   84.6325   13.5082 C.3     1  UNL1        0.1394
     34 C          63.2046   83.3774   13.5047 C.ar    1  UNL1        0.0319
     35 C          62.2641   83.0933   14.6383 C.ar    1  UNL1        0.1379
     36 F          62.1452   84.0643   15.7753 F       1  UNL1       -0.2044
     37 C          61.4428   81.8382   14.6348 C.ar    1  UNL1        0.0294
     38 C          61.5618   80.8671   13.4977 C.ar    1  UNL1        0.0022
     39 C          62.5021   81.1512   12.3641 C.ar    1  UNL1        0.0037
     40 C          63.3235   82.4063   12.3676 C.ar    1  UNL1        0.0714
     41 C          64.2639   82.6904   11.2340 C.3     1  UNL1        0.4184
     42 F          65.2042   82.9745   10.1005 F       1  UNL1       -0.1659
     43 F          63.1100   83.1466   10.3912 F       1  UNL1       -0.1659
     44 F          65.4177   82.2342   12.0769 F       1  UNL1       -0.1659
@<TRIPOS>BOND
     1    24    23    1
     2    24    22    1
     3    22     1    1
     4     1     2   ar
     5     2     3    2
     6     2     4   ar
     7     4     9    1
     8     9    10   ar
     9    10    11   ar
    10    11    12   ar
    11    12    15    1
    12    15    16    1
    13    16    17    1
    14    17    18    2
    15    17    19    1
    16    19    20    1
    17    20    21    1
    18    12    13   ar
    19    13    14   ar
    20     4     5   ar
    21     5     6   ar
    22     6    33    1
    23    33    34    1
    24    34    35   ar
    25    35    36    1
    26    35    37   ar
    27    37    38   ar
    28    38    39   ar
    29    39    40   ar
    30    40    41    1
    31    41    42    1
    32    41    43    1
    33    41    44    1
    34     6     7   ar
    35     7     8    2
    36    24    27    1
    37    27    28   ar
    38    28    29   ar
    39    29    30   ar
    40    30    31   ar
    41    31    32   ar
    42     7     1   ar
    43    32    27   ar
    44    14     9   ar
    45    40    34   ar
    46    21    19    1
    47    23    25    1
    48    23    26    1
