@<TRIPOS>MOLECULE
*****
 32 34 0 0 0
SMALL
GASTEIGER

@<TRIPOS>ATOM
      1 C          60.3047   86.3470    8.0500 C.2     1  UNL1        0.2296
      2 O          60.4492   85.2114    7.0807 O.2     1  UNL1       -0.2745
      3 N          61.4419   86.7054    8.9602 N.am    1  UNL1       -0.2543
      4 C          61.2974   87.8410    9.9296 C.ar    1  UNL1        0.0565
      5 C          60.0538   87.9654   10.7590 C.ar    1  UNL1        0.0445
      6 C          59.9093   89.1010   11.7283 C.ar    1  UNL1        0.1415
      7 F          58.6657   89.2255   12.5578 F       1  UNL1       -0.2041
      8 C          61.0085   90.1121   11.8682 C.ar    1  UNL1        0.0328
      9 C          62.2520   89.9877   11.0388 C.ar    1  UNL1        0.0406
     10 C          62.3965   88.8521   10.0695 C.ar    1  UNL1        0.0181
     11 C          63.3512   90.9988   11.1786 C.ar    1  UNL1        0.1807
     12 N          64.1421   91.2750   12.4229 N.ar    1  UNL1       -0.1083
     13 N          65.1321   92.3581   12.1121 N.ar    1  UNL1       -0.0229
     14 N          64.9530   92.7514   10.6757 N.ar    1  UNL1       -0.0464
     15 N          63.8524   91.9113   10.0988 N.ar    1  UNL1       -0.2388
     16 H          63.5177   91.9518    9.1738 H       1  UNL1        0.1923
     17 C          59.0231   87.1242    8.1092 C.3     1  UNL1        0.0856
     18 C          58.7268   88.1625    7.0680 C.3     1  UNL1        0.0096
     19 C          59.3946   90.3323    5.8047 C.3     1  UNL1        0.0000
     20 C          59.6368   89.3440    6.9068 C.3     1  UNL1        0.0005
     21 C          62.7234   85.9283    8.9011 C.3     1  UNL1        0.1247
     22 C          62.9722   84.8166    9.8771 C.ar    1  UNL1       -0.0018
     23 C          63.8572   83.6673    9.4951 C.ar    1  UNL1        0.0005
     24 C          64.1059   82.5557   10.4711 C.ar    1  UNL1        0.0369
     25 C          63.4697   82.5935   11.8290 C.ar    1  UNL1        0.1468
     26 C          62.5848   83.7428   12.2109 C.ar    1  UNL1        0.0369
     27 C          62.3361   84.8544   11.2349 C.ar    1  UNL1        0.0005
     28 O          63.7185   81.4819   12.8049 O.3     1  UNL1       -0.4045
     29 C          62.5879   80.5957   13.2365 C.3     1  UNL1        0.5753
     30 F          61.4572   79.7095   13.6682 F       1  UNL1       -0.1328
     31 F          62.4499   81.3883   14.5024 F       1  UNL1       -0.1328
     32 F          62.7259   79.8030   11.9706 F       1  UNL1       -0.1328
@<TRIPOS>BOND
     1    19    20    1
     2    20    18    1
     3    18    17    1
     4    17     1    1
     5     1     2    2
     6     1     3   am
     7     3    21    1
     8    21    22    1
     9    22    23   ar
    10    23    24   ar
    11    24    25   ar
    12    25    28    1
    13    28    29    1
    14    29    30    1
    15    29    31    1
    16    29    32    1
    17    25    26   ar
    18    26    27   ar
    19     3     4    1
    20     4     5   ar
    21     5     6   ar
    22     6     7    1
    23     6     8   ar
    24     8     9   ar
    25     9    11    1
    26    11    12   ar
    27    12    13   ar
    28    13    14   ar
    29    14    15   ar
    30     9    10   ar
    31    27    22   ar
    32    10     4   ar
    33    15    11   ar
    34    15    16    1
@<TRIPOS>MOLECULE
*****
 32 34 0 0 0
SMALL
GASTEIGER

@<TRIPOS>ATOM
      1 C          60.3644   89.1043    9.5870 C.2     1  UNL1        0.2296
      2 O          59.7564   90.4691    9.7202 O.2     1  UNL1       -0.2745
      3 N          61.2193   88.5532   10.6895 N.am    1  UNL1       -0.2543
      4 C          61.8272   87.1883   10.5562 C.ar    1  UNL1        0.0565
      5 C          62.2381   86.6788    9.2066 C.ar    1  UNL1        0.0445
      6 C          62.8460   85.3140    9.0734 C.ar    1  UNL1        0.1415
      7 F          63.2568   84.8045    7.7237 F       1  UNL1       -0.2041
      8 C          63.0430   84.4588   10.2898 C.ar    1  UNL1        0.0328
      9 C          62.6322   84.9683   11.6394 C.ar    1  UNL1        0.0406
     10 C          62.0243   86.3331   11.7726 C.ar    1  UNL1        0.0181
     11 C          62.8292   84.1131   12.8559 C.ar    1  UNL1        0.1807
     12 N          63.4787   82.7613   12.8875 N.ar    1  UNL1       -0.1083
     13 N          63.4623   82.2722   14.3054 N.ar    1  UNL1       -0.0229
     14 N          62.8027   83.3217   15.1502 N.ar    1  UNL1       -0.0464
     15 N          62.4115   84.4594   14.2543 N.ar    1  UNL1       -0.2388
     16 H          61.9598   85.2879   14.5348 H       1  UNL1        0.1923
     17 C          60.1174   88.2906    8.3513 C.3     1  UNL1        0.0856
     18 C          59.1423   88.7725    7.3184 C.3     1  UNL1        0.0096
     19 C          58.5827   90.6309    5.5912 C.3     1  UNL1        0.0000
     20 C          59.5862   89.7402    6.2617 C.3     1  UNL1        0.0005
     21 C          61.4662   89.3668   11.9251 C.3     1  UNL1        0.1247
     22 C          62.6785   90.2458   12.0145 C.ar    1  UNL1       -0.0018
     23 C          63.4056   90.3902   13.3185 C.ar    1  UNL1        0.0005
     24 C          64.6178   91.2691   13.4079 C.ar    1  UNL1        0.0369
     25 C          65.1030   92.0035   12.1933 C.ar    1  UNL1        0.1468
     26 C          64.3759   91.8590   10.8893 C.ar    1  UNL1        0.0369
     27 C          63.1637   90.9801   10.7999 C.ar    1  UNL1        0.0005
     28 O          66.3153   92.8824   12.2827 O.3     1  UNL1       -0.4045
     29 C          67.1957   92.8246   13.4957 C.3     1  UNL1        0.5753
     30 F          68.0763   92.7668   14.7087 F       1  UNL1       -0.1328
     31 F          67.9339   91.6604   12.9044 F       1  UNL1       -0.1328
     32 F          66.4576   93.9889   14.0870 F       1  UNL1       -0.1328
@<TRIPOS>BOND
     1    19    20    1
     2    20    18    1
     3    18    17    1
     4    17     1    1
     5     1     2    2
     6     1     3   am
     7     3    21    1
     8    21    22    1
     9    22    23   ar
    10    23    24   ar
    11    24    25   ar
    12    25    28    1
    13    28    29    1
    14    29    30    1
    15    29    31    1
    16    29    32    1
    17    25    26   ar
    18    26    27   ar
    19     3     4    1
    20     4     5   ar
    21     5     6   ar
    22     6     7    1
    23     6     8   ar
    24     8     9   ar
    25     9    11    1
    26    11    12   ar
    27    12    13   ar
    28    13    14   ar
    29    14    15   ar
    30     9    10   ar
    31    27    22   ar
    32    10     4   ar
    33    15    11   ar
    34    15    16    1
@<TRIPOS>MOLECULE
*****
 32 34 0 0 0
SMALL
GASTEIGER

@<TRIPOS>ATOM
      1 C          60.3148   89.0507    9.5797 C.2     1  UNL1        0.2296
      2 O          59.7177   90.4112    9.7855 O.2     1  UNL1       -0.2745
      3 N          61.2869   88.4991   10.5801 N.am    1  UNL1       -0.2543
      4 C          61.8840   87.1385   10.3742 C.ar    1  UNL1        0.0565
      5 C          62.2788   86.6932    8.9974 C.ar    1  UNL1        0.0445
      6 C          62.8759   85.3327    8.7915 C.ar    1  UNL1        0.1415
      7 F          63.2707   84.8873    7.4146 F       1  UNL1       -0.2041
      8 C          63.0782   84.4174    9.9626 C.ar    1  UNL1        0.0328
      9 C          62.6834   84.8627   11.3395 C.ar    1  UNL1        0.0406
     10 C          62.0863   86.2232   11.5453 C.ar    1  UNL1        0.0181
     11 C          62.8857   83.9474   12.5105 C.ar    1  UNL1        0.1807
     12 N          62.6313   84.2871   13.9493 N.ar    1  UNL1       -0.1083
     13 N          62.9663   83.0814   14.7764 N.ar    1  UNL1       -0.0229
     14 N          63.4276   81.9966   13.8489 N.ar    1  UNL1       -0.0464
     15 N          63.3778   82.5318   12.4485 N.ar    1  UNL1       -0.2388
     16 H          63.6247   82.0403   11.6320 H       1  UNL1        0.1923
     17 C          59.9399   88.2417    8.3734 C.3     1  UNL1        0.0856
     18 C          59.0235   88.8213    7.3370 C.3     1  UNL1        0.0096
     19 C          58.6619   90.7042    5.5837 C.3     1  UNL1        0.0000
     20 C          59.5697   89.7329    6.2784 C.3     1  UNL1        0.0005
     21 C          61.6619   89.3080   11.7863 C.3     1  UNL1        0.1247
     22 C          62.8013   90.2808   11.7124 C.ar    1  UNL1       -0.0018
     23 C          63.1322   90.9509   10.4118 C.ar    1  UNL1        0.0005
     24 C          64.2716   91.9237   10.3380 C.ar    1  UNL1        0.0369
     25 C          65.0801   92.2264   11.5646 C.ar    1  UNL1        0.1468
     26 C          64.7492   91.5563   12.8652 C.ar    1  UNL1        0.0369
     27 C          63.6099   90.5835   12.9390 C.ar    1  UNL1        0.0005
     28 O          66.2195   93.1992   11.4907 O.3     1  UNL1       -0.4045
     29 C          66.9730   93.3755   10.2058 C.3     1  UNL1        0.5753
     30 F          67.7265   93.5518    8.9207 F       1  UNL1       -0.1328
     31 F          66.2468   94.6641    9.9567 F       1  UNL1       -0.1328
     32 F          67.6992   92.0868   10.4548 F       1  UNL1       -0.1328
@<TRIPOS>BOND
     1    19    20    1
     2    20    18    1
     3    18    17    1
     4    17     1    1
     5     1     2    2
     6     1     3   am
     7     3    21    1
     8    21    22    1
     9    22    23   ar
    10    23    24   ar
    11    24    25   ar
    12    25    28    1
    13    28    29    1
    14    29    30    1
    15    29    31    1
    16    29    32    1
    17    25    26   ar
    18    26    27   ar
    19     3     4    1
    20     4     5   ar
    21     5     6   ar
    22     6     7    1
    23     6     8   ar
    24     8     9   ar
    25     9    11    1
    26    11    12   ar
    27    12    13   ar
    28    13    14   ar
    29    14    15   ar
    30     9    10   ar
    31    27    22   ar
    32    10     4   ar
    33    15    11   ar
    34    15    16    1
@<TRIPOS>MOLECULE
*****
 32 34 0 0 0
SMALL
GASTEIGER

@<TRIPOS>ATOM
      1 C          60.5525   87.0040    8.6391 C.2     1  UNL1        0.2296
      2 O          60.1327   85.8572    7.7681 O.2     1  UNL1       -0.2745
      3 N          61.9335   87.0353    9.2239 N.am    1  UNL1       -0.2543
      4 C          62.3534   88.1821   10.0948 C.ar    1  UNL1        0.0565
      5 C          62.5846   89.5361    9.4922 C.ar    1  UNL1        0.0445
      6 C          63.0045   90.6829   10.3632 C.ar    1  UNL1        0.1415
      7 F          63.2358   92.0369    9.7606 F       1  UNL1       -0.2041
      8 C          63.1930   90.4756   11.8368 C.ar    1  UNL1        0.0328
      9 C          62.9617   89.1217   12.4394 C.ar    1  UNL1        0.0406
     10 C          62.5419   87.9749   11.5685 C.ar    1  UNL1        0.0181
     11 C          63.1502   88.9145   13.9130 C.ar    1  UNL1        0.1807
     12 N          62.7093   89.8510   14.9986 N.ar    1  UNL1       -0.1083
     13 N          63.0993   89.2497   16.3163 N.ar    1  UNL1       -0.0229
     14 N          63.7814   87.9415   16.0451 N.ar    1  UNL1       -0.0464
     15 N          63.8128   87.7344   14.5598 N.ar    1  UNL1       -0.2388
     16 H          64.2003   86.9598   14.0917 H       1  UNL1        0.1923
     17 C          59.5914   88.1196    8.9253 C.3     1  UNL1        0.0856
     18 C          59.5685   89.3340    8.0452 C.3     1  UNL1        0.0096
     19 C          58.9787   90.3938    5.7476 C.3     1  UNL1        0.0000
     20 C          59.3205   89.1888    6.5730 C.3     1  UNL1        0.0005
     21 C          62.8946   85.9198    8.9377 C.3     1  UNL1        0.1247
     22 C          63.0616   84.8021    9.9241 C.ar    1  UNL1       -0.0018
     23 C          63.9230   83.6226    9.5823 C.ar    1  UNL1        0.0005
     24 C          64.0900   82.5050   10.5687 C.ar    1  UNL1        0.0369
     25 C          63.3955   82.5668   11.8968 C.ar    1  UNL1        0.1468
     26 C          62.5341   83.7462   12.2386 C.ar    1  UNL1        0.0369
     27 C          62.3671   84.8639   11.2522 C.ar    1  UNL1        0.0005
     28 O          63.5625   81.4491   12.8832 O.3     1  UNL1       -0.4045
     29 C          62.3800   80.6156   13.2795 C.3     1  UNL1        0.5753
     30 F          61.1975   79.7820   13.6757 F       1  UNL1       -0.1328
     31 F          62.6116   79.7242   12.0955 F       1  UNL1       -0.1328
     32 F          62.1485   81.5070   14.4634 F       1  UNL1       -0.1328
@<TRIPOS>BOND
     1    19    20    1
     2    20    18    1
     3    18    17    1
     4    17     1    1
     5     1     2    2
     6     1     3   am
     7     3    21    1
     8    21    22    1
     9    22    23   ar
    10    23    24   ar
    11    24    25   ar
    12    25    28    1
    13    28    29    1
    14    29    30    1
    15    29    31    1
    16    29    32    1
    17    25    26   ar
    18    26    27   ar
    19     3     4    1
    20     4     5   ar
    21     5     6   ar
    22     6     7    1
    23     6     8   ar
    24     8     9   ar
    25     9    11    1
    26    11    12   ar
    27    12    13   ar
    28    13    14   ar
    29    14    15   ar
    30     9    10   ar
    31    27    22   ar
    32    10     4   ar
    33    15    11   ar
    34    15    16    1
@<TRIPOS>MOLECULE
*****
 32 34 0 0 0
SMALL
GASTEIGER

@<TRIPOS>ATOM
      1 C          62.0147   86.8000    9.7851 C.2     1  UNL1        0.2296
      2 O          61.3998   87.7488    8.7994 O.2     1  UNL1       -0.2745
      3 N          62.1749   87.2084   11.2195 N.am    1  UNL1       -0.2543
      4 C          62.7898   86.2595   12.2052 C.ar    1  UNL1        0.0565
      5 C          63.7378   86.7720   13.2485 C.ar    1  UNL1        0.0445
      6 C          64.3527   85.8232   14.2342 C.ar    1  UNL1        0.1415
      7 F          65.3007   86.3357   15.2776 F       1  UNL1       -0.2041
      8 C          64.0196   84.3618   14.1765 C.ar    1  UNL1        0.0328
      9 C          63.0716   83.8492   13.1332 C.ar    1  UNL1        0.0406
     10 C          62.4567   84.7981   12.1476 C.ar    1  UNL1        0.0181
     11 C          62.7384   82.3878   13.0755 C.ar    1  UNL1        0.1807
     12 N          63.1402   81.4341   11.9897 N.ar    1  UNL1       -0.1083
     13 N          62.5951   80.0804   12.3367 N.ar    1  UNL1       -0.0229
     14 N          61.8565   80.1975   13.6369 N.ar    1  UNL1       -0.0464
     15 N          61.9450   81.6235   14.0935 N.ar    1  UNL1       -0.2388
     16 H          61.5515   81.9930   14.9169 H       1  UNL1        0.1923
     17 C          62.4694   85.4428    9.3364 C.3     1  UNL1        0.0856
     18 C          62.8291   85.2096    7.8989 C.3     1  UNL1        0.0096
     19 C          62.1187   84.2603    5.5872 C.3     1  UNL1        0.0000
     20 C          61.7570   84.8894    6.9000 C.3     1  UNL1        0.0005
     21 C          61.7202   88.5655   11.6682 C.3     1  UNL1        0.1247
     22 C          62.6832   89.7157   11.6726 C.ar    1  UNL1       -0.0018
     23 C          62.9088   90.5097   10.4202 C.ar    1  UNL1        0.0005
     24 C          63.8717   91.6598   10.4246 C.ar    1  UNL1        0.0369
     25 C          64.6091   92.0158   11.6814 C.ar    1  UNL1        0.1468
     26 C          64.3835   91.2217   12.9338 C.ar    1  UNL1        0.0369
     27 C          63.4206   90.0717   12.9294 C.ar    1  UNL1        0.0005
     28 O          65.5721   93.1659   11.6858 O.3     1  UNL1       -0.4045
     29 C          66.1290   93.6827   10.3925 C.3     1  UNL1        0.5753
     30 F          66.6859   94.1996    9.0991 F       1  UNL1       -0.1328
     31 F          65.2188   94.8720   10.4757 F       1  UNL1       -0.1328
     32 F          67.0392   92.4934   10.3092 F       1  UNL1       -0.1328
@<TRIPOS>BOND
     1    19    20    1
     2    20    18    1
     3    18    17    1
     4    17     1    1
     5     1     2    2
     6     1     3   am
     7     3    21    1
     8    21    22    1
     9    22    23   ar
    10    23    24   ar
    11    24    25   ar
    12    25    28    1
    13    28    29    1
    14    29    30    1
    15    29    31    1
    16    29    32    1
    17    25    26   ar
    18    26    27   ar
    19     3     4    1
    20     4     5   ar
    21     5     6   ar
    22     6     7    1
    23     6     8   ar
    24     8     9   ar
    25     9    11    1
    26    11    12   ar
    27    12    13   ar
    28    13    14   ar
    29    14    15   ar
    30     9    10   ar
    31    27    22   ar
    32    10     4   ar
    33    15    11   ar
    34    15    16    1
@<TRIPOS>MOLECULE
*****
 32 34 0 0 0
SMALL
GASTEIGER

@<TRIPOS>ATOM
      1 C          60.2680   89.2091    9.7597 C.2     1  UNL1        0.2296
      2 O          59.3980   88.3123    8.9298 O.2     1  UNL1       -0.2745
      3 N          61.7312   88.9115    9.9030 N.am    1  UNL1       -0.2543
      4 C          62.6012   89.8085   10.7330 C.ar    1  UNL1        0.0565
      5 C          63.5066   90.8014   10.0664 C.ar    1  UNL1        0.0445
      6 C          64.3765   91.6982   10.8963 C.ar    1  UNL1        0.1415
      7 F          65.2820   92.6912   10.2297 F       1  UNL1       -0.2041
      8 C          64.3411   91.6021   12.3928 C.ar    1  UNL1        0.0328
      9 C          63.4357   90.6092   13.0594 C.ar    1  UNL1        0.0406
     10 C          62.5658   89.7124   12.2295 C.ar    1  UNL1        0.0181
     11 C          63.4003   90.5132   14.5559 C.ar    1  UNL1        0.1807
     12 N          63.8738   91.5618   15.5182 N.ar    1  UNL1       -0.1083
     13 N          63.6513   91.0484   16.9099 N.ar    1  UNL1       -0.0229
     14 N          63.0402   89.6823   16.8077 N.ar    1  UNL1       -0.0464
     15 N          62.8850   89.3516   15.3529 N.ar    1  UNL1       -0.2388
     16 H          62.5108   88.5184   14.9856 H       1  UNL1        0.1923
     17 C          59.6749   90.4037   10.4463 C.3     1  UNL1        0.0856
     18 C          59.0034   90.2464   11.7784 C.3     1  UNL1        0.0096
     19 C          57.9132   88.5672   13.4342 C.3     1  UNL1        0.0000
     20 C          59.0059   88.9137   12.4668 C.3     1  UNL1        0.0005
     21 C          62.3244   87.7171    9.2165 C.3     1  UNL1        0.1247
     22 C          62.5759   86.4561    9.9890 C.ar    1  UNL1       -0.0018
     23 C          62.2879   86.4078   11.4602 C.ar    1  UNL1        0.0005
     24 C          62.5393   85.1468   12.2326 C.ar    1  UNL1        0.0369
     25 C          63.0788   83.9341   11.5338 C.ar    1  UNL1        0.1468
     26 C          63.3668   83.9824   10.0625 C.ar    1  UNL1        0.0369
     27 C          63.1153   85.2434    9.2901 C.ar    1  UNL1        0.0005
     28 O          63.3303   82.6731   12.3063 O.3     1  UNL1       -0.4045
     29 C          62.5612   82.3983   13.5644 C.3     1  UNL1        0.5753
     30 F          61.7921   82.1235   14.8226 F       1  UNL1       -0.1328
     31 F          63.6229   83.0922   14.3650 F       1  UNL1       -0.1328
     32 F          61.4994   81.7043   12.7638 F       1  UNL1       -0.1328
@<TRIPOS>BOND
     1    19    20    1
     2    20    18    1
     3    18    17    1
     4    17     1    1
     5     1     2    2
     6     1     3   am
     7     3    21    1
     8    21    22    1
     9    22    23   ar
    10    23    24   ar
    11    24    25   ar
    12    25    28    1
    13    28    29    1
    14    29    30    1
    15    29    31    1
    16    29    32    1
    17    25    26   ar
    18    26    27   ar
    19     3     4    1
    20     4     5   ar
    21     5     6   ar
    22     6     7    1
    23     6     8   ar
    24     8     9   ar
    25     9    11    1
    26    11    12   ar
    27    12    13   ar
    28    13    14   ar
    29    14    15   ar
    30     9    10   ar
    31    27    22   ar
    32    10     4   ar
    33    15    11   ar
    34    15    16    1
@<TRIPOS>MOLECULE
*****
 32 34 0 0 0
SMALL
GASTEIGER

@<TRIPOS>ATOM
      1 C          65.3576   91.6119   13.4322 C.2     1  UNL1        0.2296
      2 O          65.5393   92.8404   12.5910 O.2     1  UNL1       -0.2745
      3 N          64.0917   90.8138   13.3307 N.am    1  UNL1       -0.2543
      4 C          63.9101   89.5853   14.1720 C.ar    1  UNL1        0.0565
      5 C          63.6245   89.7162   15.6387 C.ar    1  UNL1        0.0445
      6 C          63.4429   88.4877   16.4800 C.ar    1  UNL1        0.1415
      7 F          63.1573   88.6185   17.9468 F       1  UNL1       -0.2041
      8 C          63.5469   87.1283   15.8545 C.ar    1  UNL1        0.0328
      9 C          63.8324   86.9974   14.3878 C.ar    1  UNL1        0.0406
     10 C          64.0140   88.2259   13.5466 C.ar    1  UNL1        0.0181
     11 C          63.9364   85.6379   13.7623 C.ar    1  UNL1        0.1807
     12 N          63.1514   85.1482   12.5817 N.ar    1  UNL1       -0.1083
     13 N          63.5734   83.7372   12.2974 N.ar    1  UNL1       -0.0229
     14 N          64.6193   83.3548   13.3023 N.ar    1  UNL1       -0.0464
     15 N          64.8436   84.5295   14.2077 N.ar    1  UNL1       -0.2388
     16 H          65.4754   84.5665   14.9619 H       1  UNL1        0.1923
     17 C          66.4420   91.1815   14.3751 C.3     1  UNL1        0.0856
     18 C          67.7461   91.9219   14.4065 C.3     1  UNL1        0.0096
     19 C          68.8417   93.7136   15.9361 C.3     1  UNL1        0.0000
     20 C          68.3565   92.3107   15.7203 C.3     1  UNL1        0.0005
     21 C          63.0073   91.2442   12.3879 C.3     1  UNL1        0.1247
     22 C          62.1933   90.2150   11.6610 C.ar    1  UNL1       -0.0018
     23 C          60.8039   89.8928   12.1255 C.ar    1  UNL1        0.0005
     24 C          59.9900   88.8636   11.3987 C.ar    1  UNL1        0.0369
     25 C          60.5654   88.1568   10.2074 C.ar    1  UNL1        0.1468
     26 C          61.9548   88.4790    9.7429 C.ar    1  UNL1        0.0369
     27 C          62.7687   89.5081   10.4697 C.ar    1  UNL1        0.0005
     28 O          59.7514   87.1276    9.4805 O.3     1  UNL1       -0.4045
     29 C          60.3530   86.3665    8.3366 C.3     1  UNL1        0.5753
     30 F          60.9547   85.6053    7.1926 F       1  UNL1       -0.1328
     31 F          61.0339   85.4469    9.3065 F       1  UNL1       -0.1328
     32 F          59.6722   87.2860    7.3667 F       1  UNL1       -0.1328
@<TRIPOS>BOND
     1    19    20    1
     2    20    18    1
     3    18    17    1
     4    17     1    1
     5     1     2    2
     6     1     3   am
     7     3    21    1
     8    21    22    1
     9    22    23   ar
    10    23    24   ar
    11    24    25   ar
    12    25    28    1
    13    28    29    1
    14    29    30    1
    15    29    31    1
    16    29    32    1
    17    25    26   ar
    18    26    27   ar
    19     3     4    1
    20     4     5   ar
    21     5     6   ar
    22     6     7    1
    23     6     8   ar
    24     8     9   ar
    25     9    11    1
    26    11    12   ar
    27    12    13   ar
    28    13    14   ar
    29    14    15   ar
    30     9    10   ar
    31    27    22   ar
    32    10     4   ar
    33    15    11   ar
    34    15    16    1
@<TRIPOS>MOLECULE
*****
 32 34 0 0 0
SMALL
GASTEIGER

@<TRIPOS>ATOM
      1 C          62.8971   90.4790   12.9863 C.2     1  UNL1        0.2296
      2 O          61.6509   89.6708   13.1953 O.2     1  UNL1       -0.2745
      3 N          63.8862   90.6347   14.1031 N.am    1  UNL1       -0.2543
      4 C          65.1325   91.4429   13.8939 C.ar    1  UNL1        0.0565
      5 C          66.2939   91.2864   14.8302 C.ar    1  UNL1        0.0445
      6 C          67.5400   92.0946   14.6210 C.ar    1  UNL1        0.1415
      7 F          68.7015   91.9380   15.5573 F       1  UNL1       -0.2041
      8 C          67.6248   93.0594   13.4756 C.ar    1  UNL1        0.0328
      9 C          66.4634   93.2160   12.5394 C.ar    1  UNL1        0.0406
     10 C          65.2172   92.4078   12.7485 C.ar    1  UNL1        0.0181
     11 C          66.5481   94.1808   11.3940 C.ar    1  UNL1        0.1807
     12 N          67.5357   94.1261   10.2663 N.ar    1  UNL1       -0.1083
     13 N          67.2581   95.2812    9.3505 N.ar    1  UNL1       -0.0229
     14 N          66.0990   96.0499    9.9122 N.ar    1  UNL1       -0.0464
     15 N          65.6602   95.3698   11.1751 N.ar    1  UNL1       -0.2388
     16 H          64.9194   95.6539   11.7581 H       1  UNL1        0.1923
     17 C          63.1541   91.1316   11.6603 C.3     1  UNL1        0.0856
     18 C          63.1811   90.3038   10.4097 C.3     1  UNL1        0.0096
     19 C          61.9963   88.0426    9.9268 C.3     1  UNL1        0.0000
     20 C          61.9601   89.5409    9.9888 C.3     1  UNL1        0.0005
     21 C          63.6292   89.9821   15.4290 C.3     1  UNL1        0.1247
     22 C          63.6607   88.4871   15.5478 C.ar    1  UNL1       -0.0018
     23 C          64.2761   87.6609   14.4576 C.ar    1  UNL1        0.0005
     24 C          64.3075   86.1660   14.5765 C.ar    1  UNL1        0.0369
     25 C          63.7236   85.4973   15.7856 C.ar    1  UNL1        0.1468
     26 C          63.1082   86.3235   16.8758 C.ar    1  UNL1        0.0369
     27 C          63.0768   87.8185   16.7569 C.ar    1  UNL1        0.0005
     28 O          63.7551   84.0023   15.9045 O.3     1  UNL1       -0.4045
     29 C          62.9788   83.1567   14.9390 C.3     1  UNL1        0.5753
     30 F          62.2024   82.3110   13.9734 F       1  UNL1       -0.1328
     31 F          61.7503   83.9730   15.2117 F       1  UNL1       -0.1328
     32 F          64.2072   82.3403   14.6663 F       1  UNL1       -0.1328
@<TRIPOS>BOND
     1    19    20    1
     2    20    18    1
     3    18    17    1
     4    17     1    1
     5     1     2    2
     6     1     3   am
     7     3    21    1
     8    21    22    1
     9    22    23   ar
    10    23    24   ar
    11    24    25   ar
    12    25    28    1
    13    28    29    1
    14    29    30    1
    15    29    31    1
    16    29    32    1
    17    25    26   ar
    18    26    27   ar
    19     3     4    1
    20     4     5   ar
    21     5     6   ar
    22     6     7    1
    23     6     8   ar
    24     8     9   ar
    25     9    11    1
    26    11    12   ar
    27    12    13   ar
    28    13    14   ar
    29    14    15   ar
    30     9    10   ar
    31    27    22   ar
    32    10     4   ar
    33    15    11   ar
    34    15    16    1
@<TRIPOS>MOLECULE
*****
 32 34 0 0 0
SMALL
GASTEIGER

@<TRIPOS>ATOM
      1 C          63.8106   87.7663   13.6554 C.2     1  UNL1        0.2296
      2 O          64.8465   87.8162   14.7391 O.2     1  UNL1       -0.2745
      3 N          63.2219   89.0384   13.1214 N.am    1  UNL1       -0.2543
      4 C          62.1860   88.9884   12.0377 C.ar    1  UNL1        0.0565
      5 C          61.0762   89.9972   12.0139 C.ar    1  UNL1        0.0445
      6 C          60.0403   89.9472   10.9302 C.ar    1  UNL1        0.1415
      7 F          58.9305   90.9560   10.9064 F       1  UNL1       -0.2041
      8 C          60.1142   88.8883    9.8703 C.ar    1  UNL1        0.0328
      9 C          61.2240   87.8795    9.8941 C.ar    1  UNL1        0.0406
     10 C          62.2599   87.9295   10.9778 C.ar    1  UNL1        0.0181
     11 C          61.2979   86.8206    8.8343 C.ar    1  UNL1        0.1807
     12 N          60.1930   86.4328    7.8968 N.ar    1  UNL1       -0.1083
     13 N          60.7019   85.3361    7.0089 N.ar    1  UNL1       -0.0229
     14 N          62.1213   85.0461    7.3976 N.ar    1  UNL1       -0.0464
     15 N          62.4896   85.9636    8.5257 N.ar    1  UNL1       -0.2388
     16 H          63.3607   85.9973    8.9833 H       1  UNL1        0.1923
     17 C          63.3634   86.4442   13.1058 C.3     1  UNL1        0.0856
     18 C          63.8520   85.1695   13.7274 C.3     1  UNL1        0.0096
     19 C          63.0661   83.7536   11.6958 C.3     1  UNL1        0.0000
     20 C          63.9397   83.9189   12.9039 C.3     1  UNL1        0.0005
     21 C          63.6691   90.3604   13.6710 C.3     1  UNL1        0.1247
     22 C          64.6558   91.1946   12.9088 C.ar    1  UNL1       -0.0018
     23 C          64.3362   91.6478   11.5151 C.ar    1  UNL1        0.0005
     24 C          65.3228   92.4818   10.7529 C.ar    1  UNL1        0.0369
     25 C          66.6290   92.8627   11.3845 C.ar    1  UNL1        0.1468
     26 C          66.9486   92.4095   12.7782 C.ar    1  UNL1        0.0369
     27 C          65.9620   91.5754   13.5403 C.ar    1  UNL1        0.0005
     28 O          67.6156   93.6968   10.6223 O.3     1  UNL1       -0.4045
     29 C          68.2288   93.1668    9.3601 C.3     1  UNL1        0.5753
     30 F          68.8421   92.6368    8.0979 F       1  UNL1       -0.1328
     31 F          68.4654   91.8457   10.0298 F       1  UNL1       -0.1328
     32 F          67.9922   94.4880    8.6904 F       1  UNL1       -0.1328
@<TRIPOS>BOND
     1    19    20    1
     2    20    18    1
     3    18    17    1
     4    17     1    1
     5     1     2    2
     6     1     3   am
     7     3    21    1
     8    21    22    1
     9    22    23   ar
    10    23    24   ar
    11    24    25   ar
    12    25    28    1
    13    28    29    1
    14    29    30    1
    15    29    31    1
    16    29    32    1
    17    25    26   ar
    18    26    27   ar
    19     3     4    1
    20     4     5   ar
    21     5     6   ar
    22     6     7    1
    23     6     8   ar
    24     8     9   ar
    25     9    11    1
    26    11    12   ar
    27    12    13   ar
    28    13    14   ar
    29    14    15   ar
    30     9    10   ar
    31    27    22   ar
    32    10     4   ar
    33    15    11   ar
    34    15    16    1
