@<TRIPOS>MOLECULE
*****
 45 50 0 0 0
SMALL
GASTEIGER

@<TRIPOS>ATOM
      1 C          59.2797   89.8017    6.5091 C.2     1  UNL1        0.2461
      2 O          57.9098   89.2033    6.6324 O.2     1  UNL1       -0.2701
      3 N          60.3566   89.4164    7.4795 N.am    1  UNL1       -0.2964
      4 H          61.2557   89.8091    7.3985 H       1  UNL1        0.1501
      5 C          63.7801   91.3697    3.0335 C.3     1  UNL1        0.1305
      6 N          62.4676   92.0828    2.8955 N.ar    1  UNL1       -0.3242
      7 C          62.1642   93.1929    1.9334 C.ar    1  UNL1        0.0738
      8 C          60.7372   93.6070    2.1387 C.ar    1  UNL1       -0.0038
      9 C          60.1587   92.7528    3.2276 C.ar    1  UNL1        0.0133
     10 C          58.7962   92.7112    3.8537 C.ar    1  UNL1        0.0013
     11 C          58.5033   91.7275    4.9475 C.ar    1  UNL1        0.0046
     12 C          59.5727   90.7854    5.4152 C.ar    1  UNL1        0.0548
     13 C          60.9352   90.8271    4.7891 C.ar    1  UNL1        0.0217
     14 C          61.2281   91.8108    3.6953 C.ar    1  UNL1        0.0598
     15 C          63.1200   93.7849    0.9404 C.ar    1  UNL1        0.0967
     16 C          62.8564   93.6450   -0.5296 C.ar    1  UNL1        0.0206
     17 C          63.8122   94.2371   -1.5226 C.ar    1  UNL1        0.0032
     18 C          65.0315   94.9689   -1.0455 C.ar    1  UNL1        0.0207
     19 C          65.2950   95.1088    0.4245 C.ar    1  UNL1        0.0989
     20 N          64.3393   94.5168    1.4174 N.ar    1  UNL1       -0.2424
     21 C          60.0154   94.6859    1.3870 C.3     1  UNL1        0.0238
     22 C          59.1965   94.4981    0.1444 C.3     1  UNL1        0.0044
     23 C          58.6607   95.8382   -0.2646 C.3     1  UNL1        0.0003
     24 C          59.1486   96.8541    0.7253 C.3     1  UNL1        0.0003
     25 C          59.9858   96.1420    1.7460 C.3     1  UNL1        0.0044
     26 C          60.0636   88.4326    8.5734 C.3     1  UNL1        0.1260
     27 C          59.9472   87.6404    9.8416 C.3     1  UNL1        0.0269
     28 C          59.0915   86.4406    9.5619 C.3     1  UNL1        0.0022
     29 C          58.6789   86.4913    8.1207 C.3     1  UNL1        0.0022
     30 C          59.2798   87.7225    7.5097 C.3     1  UNL1        0.0269
     31 C          60.9086   89.3484    9.4083 C.2     1  UNL1        0.2419
     32 O          60.4783   90.7673    9.6349 O.2     1  UNL1       -0.2731
     33 N          62.1839   88.8452   10.0168 N.am    1  UNL1       -0.2826
     34 H          62.4664   87.9139    9.8681 H       1  UNL1        0.1549
     35 C          63.0290   89.7609   10.8518 C.ar    1  UNL1        0.0503
     36 C          63.2971   89.4305   12.2902 C.ar    1  UNL1        0.0147
     37 C          64.1422   90.3463   13.1251 C.ar    1  UNL1        0.0013
     38 C          64.7192   91.5925   12.5218 C.ar    1  UNL1        0.0001
     39 C          64.4511   91.9229   11.0834 C.ar    1  UNL1        0.0013
     40 C          63.6060   91.0072   10.2485 C.ar    1  UNL1        0.0147
     41 C          65.5643   92.5083   13.3568 C.2     1  UNL1        0.0012
     42 C          66.6307   91.9415   14.2464 C.2     1  UNL1        0.0151
     43 C          67.4757   92.8573   15.0814 C.2     1  UNL1        0.0729
     44 O          68.8621   93.2145   14.6339 O.co2   1  UNL1       -0.5446
     45 O          66.9344   93.4159   16.3640 O.co2   1  UNL1       -0.5446
@<TRIPOS>UNITY_ATOM_ATTR
44 1
charge -1
@<TRIPOS>BOND
     1     5     6    1
     2     6     7   ar
     3     7    15    1
     4    15    16   ar
     5    16    17   ar
     6    17    18   ar
     7    18    19   ar
     8    19    20   ar
     9     7     8   ar
    10     8    21    1
    11    21    22    1
    12    22    23    1
    13    23    24    1
    14    24    25    1
    15     8     9   ar
    16     9    10   ar
    17    10    11   ar
    18    11    12   ar
    19    12     1    1
    20     1     2    2
    21     1     3   am
    22     3    26    1
    23    26    31    1
    24    31    32    2
    25    31    33   am
    26    33    35    1
    27    35    36   ar
    28    36    37   ar
    29    37    38   ar
    30    38    41    1
    31    41    42    2
    32    42    43    1
    33    43    44   ar
    34    43    45   ar
    35    38    39   ar
    36    39    40   ar
    37    26    27    1
    38    27    28    1
    39    28    29    1
    40    29    30    1
    41    12    13   ar
    42    13    14   ar
    43    14     6   ar
    44    20    15   ar
    45    25    21    1
    46    14     9   ar
    47    30    26    1
    48    40    35   ar
    49     3     4    1
    50    33    34    1
@<TRIPOS>MOLECULE
*****
 45 50 0 0 0
SMALL
GASTEIGER

@<TRIPOS>ATOM
      1 C          63.4398   87.1079   13.8734 C.2     1  UNL1        0.2461
      2 O          62.3958   86.8625   14.9222 O.2     1  UNL1       -0.2701
      3 N          63.6992   86.0749   12.8172 N.am    1  UNL1       -0.2964
      4 H          64.3843   86.2360   12.1288 H       1  UNL1        0.1501
      5 C          63.9902   92.0007   10.6255 C.3     1  UNL1        0.1305
      6 N          64.8236   91.8480   11.8633 N.ar    1  UNL1       -0.3242
      7 C          65.8190   92.8419   12.3842 C.ar    1  UNL1        0.0738
      8 C          66.4184   92.2827   13.6404 C.ar    1  UNL1       -0.0038
      9 C          65.7934   90.9432   13.8958 C.ar    1  UNL1        0.0133
     10 C          65.9946   89.9335   14.9866 C.ar    1  UNL1        0.0013
     11 C          65.2100   88.6551   14.9791 C.ar    1  UNL1        0.0046
     12 C          64.2243   88.3864   13.8808 C.ar    1  UNL1        0.0548
     13 C          64.0232   89.3962   12.7900 C.ar    1  UNL1        0.0217
     14 C          64.8078   90.6746   12.7975 C.ar    1  UNL1        0.0598
     15 C          66.1558   94.1630   11.7587 C.ar    1  UNL1        0.0967
     16 C          66.7865   94.2098   10.3986 C.ar    1  UNL1        0.0206
     17 C          67.1233   95.5310    9.7731 C.ar    1  UNL1        0.0032
     18 C          66.8295   96.8052   10.5078 C.ar    1  UNL1        0.0207
     19 C          66.1989   96.7584   11.8680 C.ar    1  UNL1        0.0989
     20 N          65.8620   95.4373   12.4934 N.ar    1  UNL1       -0.2424
     21 C          67.4599   92.9464   14.4917 C.3     1  UNL1        0.0238
     22 C          67.2699   94.1904   15.3079 C.3     1  UNL1        0.0044
     23 C          68.5668   94.4955   15.9969 C.3     1  UNL1        0.0003
     24 C          69.5585   93.4400   15.6064 C.3     1  UNL1        0.0003
     25 C          68.8744   92.4826   14.6761 C.3     1  UNL1        0.0044
     26 C          62.9146   84.7964   12.8097 C.3     1  UNL1        0.1260
     27 C          61.9981   83.6390   12.5449 C.3     1  UNL1        0.0269
     28 C          62.2272   82.6122   13.6140 C.3     1  UNL1        0.0022
     29 C          63.2854   83.1350   14.5397 C.3     1  UNL1        0.0022
     30 C          63.7102   84.4850   14.0425 C.3     1  UNL1        0.0269
     31 C          62.2829   85.3752   11.5784 C.2     1  UNL1        0.2419
     32 O          62.4460   84.6849   10.2567 O.2     1  UNL1       -0.2731
     33 N          61.4883   86.6441   11.6688 N.am    1  UNL1       -0.2826
     34 H          61.3812   87.0971   12.5363 H       1  UNL1        0.1549
     35 C          60.8566   87.2228   10.4375 C.ar    1  UNL1        0.0503
     36 C          60.6931   88.7080   10.3058 C.ar    1  UNL1        0.0147
     37 C          60.0615   89.2867    9.0746 C.ar    1  UNL1        0.0013
     38 C          59.5933   88.3803    7.9749 C.ar    1  UNL1        0.0001
     39 C          59.7569   86.8951    8.1066 C.ar    1  UNL1        0.0013
     40 C          60.3885   86.3163    9.3379 C.ar    1  UNL1        0.0147
     41 C          58.9617   88.9590    6.7436 C.2     1  UNL1        0.0012
     42 C          58.9785   90.4418    6.5183 C.2     1  UNL1        0.0151
     43 C          58.3469   91.0206    5.2870 C.2     1  UNL1        0.0729
     44 O          59.1999   91.6885    4.2496 O.co2   1  UNL1       -0.5446
     45 O          56.8621   90.9314    5.0931 O.co2   1  UNL1       -0.5446
@<TRIPOS>UNITY_ATOM_ATTR
44 1
charge -1
@<TRIPOS>BOND
     1     5     6    1
     2     6     7   ar
     3     7    15    1
     4    15    16   ar
     5    16    17   ar
     6    17    18   ar
     7    18    19   ar
     8    19    20   ar
     9     7     8   ar
    10     8    21    1
    11    21    22    1
    12    22    23    1
    13    23    24    1
    14    24    25    1
    15     8     9   ar
    16     9    10   ar
    17    10    11   ar
    18    11    12   ar
    19    12     1    1
    20     1     2    2
    21     1     3   am
    22     3    26    1
    23    26    31    1
    24    31    32    2
    25    31    33   am
    26    33    35    1
    27    35    36   ar
    28    36    37   ar
    29    37    38   ar
    30    38    41    1
    31    41    42    2
    32    42    43    1
    33    43    44   ar
    34    43    45   ar
    35    38    39   ar
    36    39    40   ar
    37    26    27    1
    38    27    28    1
    39    28    29    1
    40    29    30    1
    41    12    13   ar
    42    13    14   ar
    43    14     6   ar
    44    20    15   ar
    45    25    21    1
    46    14     9   ar
    47    30    26    1
    48    40    35   ar
    49     3     4    1
    50    33    34    1
