@<TRIPOS>MOLECULE
*****
 42 47 0 0 0
SMALL
GASTEIGER

@<TRIPOS>ATOM
      1 N          61.8585   86.1280   10.1988 N.ar    1  UNL1       -0.2823
      2 C          61.6443   84.8620    9.4233 C.ar    1  UNL1        0.1831
      3 N          60.9133   85.2101    8.1606 N.ar    1  UNL1       -0.2236
      4 C          60.6758   86.6911    8.1556 C.ar    1  UNL1        0.0991
      5 C          60.0031   87.5964    7.1668 C.ar    1  UNL1        0.0207
      6 C          59.9145   89.0691    7.4377 C.ar    1  UNL1        0.0046
      7 C          60.4986   89.6364    8.6975 C.ar    1  UNL1        0.0017
      8 C          61.1714   88.7311    9.6863 C.ar    1  UNL1        0.0191
      9 C          61.2599   87.2584    9.4154 C.ar    1  UNL1        0.0835
     10 C          63.7145   87.1548   13.4495 C.ar    1  UNL1        0.1512
     11 C          63.1191   87.4987   12.1163 C.ar    1  UNL1        0.0619
     12 C          62.5498   86.2433   11.5250 C.ar    1  UNL1        0.0987
     13 S          62.7933   85.1233   12.4927 S.2     1  UNL1       -0.0618
     14 C          63.5130   85.6866   13.6821 C.ar    1  UNL1        0.1178
     15 C          63.9540   84.9169   14.8917 C.2     1  UNL1        0.2518
     16 N          64.2207   85.6349   16.1814 N.am    1  UNL1       -0.3248
     17 O          64.1283   83.4292   14.8116 O.2     1  UNL1       -0.2697
     18 H          64.1064   86.6113   16.2340 H       1  UNL1        0.1453
     19 H          64.5101   85.1297   16.9753 H       1  UNL1        0.1453
     20 O          64.3921   88.1109   14.3856 O.3     1  UNL1       -0.4740
     21 C          63.0777   89.9858   15.6132 C.3     1  UNL1        0.0523
     22 C          63.9316   89.5363   14.4649 C.3     1  UNL1        0.1891
     23 C          64.3250   90.5121   13.3957 C.ar    1  UNL1        0.0278
     24 C          63.5193   90.6076   12.1341 C.ar    1  UNL1        0.0000
     25 C          63.9127   91.5834   11.0650 C.ar    1  UNL1       -0.0002
     26 C          65.1118   92.4637   11.2575 C.ar    1  UNL1        0.0008
     27 C          65.9176   92.3682   12.5190 C.ar    1  UNL1        0.0112
     28 C          65.5242   91.3924   13.5882 C.ar    1  UNL1        0.0570
     29 CL         66.3299   91.2969   14.8498 Cl      1  UNL1       -0.0825
     30 C          59.2418   89.9745    6.4489 C.ar    1  UNL1        0.0397
     31 C          57.7626   90.1748    6.3011 C.ar    1  UNL1        0.1216
     32 N          57.5368   91.1626    5.1951 N.ar    1  UNL1       -0.1676
     33 N          58.8765   91.5728    4.6593 N.ar    1  UNL1       -0.2480
     34 C          59.9302   90.8385    5.4342 C.ar    1  UNL1        0.0967
     35 C          59.1197   92.5464    3.5444 C.3     1  UNL1        0.1448
     36 C          60.5154   92.7881    3.0509 C.3     1  UNL1        0.0989
     37 N          60.7778   92.9241    1.5804 N.3     1  UNL1       -0.2667
     38 C          59.6765   92.6669    0.5950 C.3     1  UNL1        0.1047
     39 C          59.9389   92.8030   -0.8756 C.3     1  UNL1        0.1595
     40 O          61.3027   93.1963   -1.3608 O.3     1  UNL1       -0.3508
     41 C          62.4040   93.4535   -0.3755 C.3     1  UNL1        0.1595
     42 C          62.1416   93.3174    1.0951 C.3     1  UNL1        0.1047
@<TRIPOS>BOND
     1    22    21    1
     2    22    20    1
     3    20    10    1
     4    10    11   ar
     5    11    12   ar
     6    12     1    1
     7     1     2   ar
     8     2     3   ar
     9     3     4   ar
    10     4     5   ar
    11     5     6   ar
    12     6    30    1
    13    30    31   ar
    14    31    32   ar
    15    32    33   ar
    16    33    35    1
    17    35    36    1
    18    36    37    1
    19    37    38    1
    20    38    39    1
    21    39    40    1
    22    40    41    1
    23    41    42    1
    24    33    34   ar
    25     6     7   ar
    26     7     8   ar
    27     8     9   ar
    28    12    13   ar
    29    13    14   ar
    30    14    15    1
    31    15    16   am
    32    15    17    2
    33    22    23    1
    34    23    24   ar
    35    24    25   ar
    36    25    26   ar
    37    26    27   ar
    38    27    28   ar
    39    28    29    1
    40    14    10   ar
    41    28    23   ar
    42     9     1   ar
    43     9     4   ar
    44    34    30   ar
    45    42    37    1
    46    16    18    1
    47    16    19    1
@<TRIPOS>MOLECULE
*****
 42 47 0 0 0
SMALL
GASTEIGER

@<TRIPOS>ATOM
      1 N          62.8373   85.9426   15.8591 N.ar    1  UNL1       -0.2823
      2 C          62.3984   86.0632   17.2883 C.ar    1  UNL1        0.1831
      3 N          62.7553   87.4388   17.7683 N.ar    1  UNL1       -0.2236
      4 C          63.4148   88.1683   16.6357 C.ar    1  UNL1        0.0991
      5 C          63.9757   89.5552   16.5264 C.ar    1  UNL1        0.0207
      6 C          64.5873   90.0173   15.2371 C.ar    1  UNL1        0.0046
      7 C          64.6380   89.0926   14.0571 C.ar    1  UNL1        0.0017
      8 C          64.0771   87.7058   14.1664 C.ar    1  UNL1        0.0191
      9 C          63.4655   87.2436   15.4557 C.ar    1  UNL1        0.0835
     10 C          62.5817   83.2884   13.0385 C.ar    1  UNL1        0.1512
     11 C          62.8294   84.6957   13.4947 C.ar    1  UNL1        0.0619
     12 C          62.6763   84.7333   14.9863 C.ar    1  UNL1        0.0987
     13 S          62.3339   83.3492   15.4522 S.2     1  UNL1       -0.0618
     14 C          62.2755   82.4562   14.2483 C.ar    1  UNL1        0.1178
     15 C          61.9652   80.9886   14.2534 C.2     1  UNL1        0.2518
     16 N          60.5426   80.5224   14.1598 N.am    1  UNL1       -0.3248
     17 O          63.0776   79.9872   14.3522 O.2     1  UNL1       -0.2697
     18 H          59.8125   81.1796   14.0950 H       1  UNL1        0.1453
     19 H          60.3390   79.5592   14.1631 H       1  UNL1        0.1453
     20 O          62.6314   82.7993   11.6214 O.3     1  UNL1       -0.4740
     21 C          64.4271   83.3618    9.8301 C.3     1  UNL1        0.0523
     22 C          63.1466   83.6970   10.5358 C.3     1  UNL1        0.1891
     23 C          62.3812   84.9298   10.1557 C.ar    1  UNL1        0.0278
     24 C          61.6928   85.7409   11.2132 C.ar    1  UNL1        0.0000
     25 C          60.9274   86.9737   10.8332 C.ar    1  UNL1       -0.0002
     26 C          60.8505   87.3954    9.3957 C.ar    1  UNL1        0.0008
     27 C          61.5390   86.5843    8.3383 C.ar    1  UNL1        0.0112
     28 C          62.3044   85.3515    8.7183 C.ar    1  UNL1        0.0570
     29 CL         62.9928   84.5404    7.6609 Cl      1  UNL1       -0.0825
     30 C          65.1483   91.4042   15.1277 C.ar    1  UNL1        0.0397
     31 C          65.3362   92.3711   16.2590 C.ar    1  UNL1        0.1216
     32 N          65.9238   93.6321   15.6983 N.ar    1  UNL1       -0.1676
     33 N          66.0991   93.4447   14.2204 N.ar    1  UNL1       -0.2480
     34 C          65.6198   92.0678   13.8678 C.ar    1  UNL1        0.0967
     35 C          66.6560   94.4564   13.2632 C.3     1  UNL1        0.1448
     36 C          66.1041   94.5559   11.8720 C.3     1  UNL1        0.0989
     37 N          66.8705   93.9804   10.7182 N.3     1  UNL1       -0.2667
     38 C          67.1478   94.8217    9.5077 C.3     1  UNL1        0.1047
     39 C          67.9142   94.2462    8.3538 C.3     1  UNL1        0.1595
     40 O          68.4033   92.8293    8.4106 O.3     1  UNL1       -0.3508
     41 C          68.1260   91.9879    9.6210 C.3     1  UNL1        0.1595
     42 C          67.3596   92.5635   10.7748 C.3     1  UNL1        0.1047
@<TRIPOS>BOND
     1    22    21    1
     2    22    20    1
     3    20    10    1
     4    10    11   ar
     5    11    12   ar
     6    12     1    1
     7     1     2   ar
     8     2     3   ar
     9     3     4   ar
    10     4     5   ar
    11     5     6   ar
    12     6    30    1
    13    30    31   ar
    14    31    32   ar
    15    32    33   ar
    16    33    35    1
    17    35    36    1
    18    36    37    1
    19    37    38    1
    20    38    39    1
    21    39    40    1
    22    40    41    1
    23    41    42    1
    24    33    34   ar
    25     6     7   ar
    26     7     8   ar
    27     8     9   ar
    28    12    13   ar
    29    13    14   ar
    30    14    15    1
    31    15    16   am
    32    15    17    2
    33    22    23    1
    34    23    24   ar
    35    24    25   ar
    36    25    26   ar
    37    26    27   ar
    38    27    28   ar
    39    28    29    1
    40    14    10   ar
    41    28    23   ar
    42     9     1   ar
    43     9     4   ar
    44    34    30   ar
    45    42    37    1
    46    16    18    1
    47    16    19    1
@<TRIPOS>MOLECULE
*****
 42 47 0 0 0
SMALL
GASTEIGER

@<TRIPOS>ATOM
      1 N          59.1395   90.5806    5.7721 N.ar    1  UNL1       -0.2823
      2 C          57.7280   91.0502    5.5795 C.ar    1  UNL1        0.1831
      3 N          57.7111   92.0055    4.4232 N.ar    1  UNL1       -0.2236
      4 C          59.1121   92.1263    3.9011 C.ar    1  UNL1        0.0991
      5 C          59.6980   92.9244    2.7743 C.ar    1  UNL1        0.0207
      6 C          61.1668   92.8418    2.4812 C.ar    1  UNL1        0.0046
      7 C          62.0496   91.9612    3.3149 C.ar    1  UNL1        0.0017
      8 C          61.4637   91.1631    4.4417 C.ar    1  UNL1        0.0191
      9 C          59.9950   91.2456    4.7348 C.ar    1  UNL1        0.0835
     10 C          60.4722   88.7013    8.8959 C.ar    1  UNL1        0.1512
     11 C          60.1035   89.9724    8.1899 C.ar    1  UNL1        0.0619
     12 C          59.6126   89.6154    6.8183 C.ar    1  UNL1        0.0987
     13 S          59.6778   88.1235    6.6765 S.2     1  UNL1       -0.0618
     14 C          60.2090   87.5586    7.9605 C.ar    1  UNL1        0.1178
     15 C          60.4371   86.1059    8.2570 C.2     1  UNL1        0.2518
     16 N          60.9934   85.6902    9.5866 N.am    1  UNL1       -0.3248
     17 O          60.1088   85.0690    7.2240 O.2     1  UNL1       -0.2697
     18 H          61.2088   86.3708   10.2646 H       1  UNL1        0.1453
     19 H          61.1430   84.7368    9.7812 H       1  UNL1        0.1453
     20 O          61.0095   88.5921   10.2920 O.3     1  UNL1       -0.4740
     21 C          59.8379   90.2960   11.8650 C.3     1  UNL1        0.0523
     22 C          61.0734   89.8078   11.1683 C.3     1  UNL1        0.1891
     23 C          62.3728   90.5354   11.3479 C.ar    1  UNL1        0.0278
     24 C          62.9800   91.2813   10.1969 C.ar    1  UNL1        0.0000
     25 C          64.2794   92.0089   10.3766 C.ar    1  UNL1       -0.0002
     26 C          64.9715   91.9905   11.7072 C.ar    1  UNL1        0.0008
     27 C          64.3643   91.2446   12.8582 C.ar    1  UNL1        0.0112
     28 C          63.0649   90.5170   12.6786 C.ar    1  UNL1        0.0570
     29 CL         62.4577   89.7711   13.8295 Cl      1  UNL1       -0.0825
     30 C          61.7527   93.6400    1.3544 C.ar    1  UNL1        0.0397
     31 C          60.9924   94.5266    0.4133 C.ar    1  UNL1        0.1216
     32 N          61.9717   95.1262   -0.5519 N.ar    1  UNL1       -0.1676
     33 N          63.3373   94.6100   -0.2073 N.ar    1  UNL1       -0.2480
     34 C          63.2020   93.6915    0.9708 C.ar    1  UNL1        0.0967
     35 C          64.6141   94.9523   -0.9164 C.3     1  UNL1        0.1448
     36 C          64.5727   95.6968   -2.2179 C.3     1  UNL1        0.0989
     37 N          64.0187   95.0337   -3.4439 N.3     1  UNL1       -0.2667
     38 C          64.2539   93.5706   -3.6765 C.3     1  UNL1        0.1047
     39 C          63.6998   92.9075   -4.9026 C.3     1  UNL1        0.1595
     40 O          62.9105   93.7075   -5.8961 O.3     1  UNL1       -0.3508
     41 C          62.6752   95.1705   -5.6635 C.3     1  UNL1        0.1595
     42 C          63.2293   95.8336   -4.4374 C.3     1  UNL1        0.1047
@<TRIPOS>BOND
     1    22    21    1
     2    22    20    1
     3    20    10    1
     4    10    11   ar
     5    11    12   ar
     6    12     1    1
     7     1     2   ar
     8     2     3   ar
     9     3     4   ar
    10     4     5   ar
    11     5     6   ar
    12     6    30    1
    13    30    31   ar
    14    31    32   ar
    15    32    33   ar
    16    33    35    1
    17    35    36    1
    18    36    37    1
    19    37    38    1
    20    38    39    1
    21    39    40    1
    22    40    41    1
    23    41    42    1
    24    33    34   ar
    25     6     7   ar
    26     7     8   ar
    27     8     9   ar
    28    12    13   ar
    29    13    14   ar
    30    14    15    1
    31    15    16   am
    32    15    17    2
    33    22    23    1
    34    23    24   ar
    35    24    25   ar
    36    25    26   ar
    37    26    27   ar
    38    27    28   ar
    39    28    29    1
    40    14    10   ar
    41    28    23   ar
    42     9     1   ar
    43     9     4   ar
    44    34    30   ar
    45    42    37    1
    46    16    18    1
    47    16    19    1
@<TRIPOS>MOLECULE
*****
 42 47 0 0 0
SMALL
GASTEIGER

@<TRIPOS>ATOM
      1 N          59.0245   90.5941    5.7892 N.ar    1  UNL1       -0.2823
      2 C          57.6154   91.0526    5.5569 C.ar    1  UNL1        0.1831
      3 N          57.6192   91.9854    4.3822 N.ar    1  UNL1       -0.2236
      4 C          59.0307   92.1034    3.8886 C.ar    1  UNL1        0.0991
      5 C          59.6374   92.8827    2.7596 C.ar    1  UNL1        0.0207
      6 C          61.1125   92.8022    2.5002 C.ar    1  UNL1        0.0046
      7 C          61.9811   91.9422    3.3698 C.ar    1  UNL1        0.0017
      8 C          61.3745   91.1629    4.4988 C.ar    1  UNL1        0.0191
      9 C          59.8993   91.2435    4.7581 C.ar    1  UNL1        0.0835
     10 C          60.2513   88.7773    8.9923 C.ar    1  UNL1        0.1512
     11 C          59.8638   90.0298    8.2635 C.ar    1  UNL1        0.0619
     12 C          59.4792   89.6516    6.8639 C.ar    1  UNL1        0.0987
     13 S          59.6290   88.1653    6.7276 S.2     1  UNL1       -0.0618
     14 C          60.1062   87.6250    8.0430 C.ar    1  UNL1        0.1178
     15 C          60.3887   86.1851    8.3545 C.2     1  UNL1        0.2518
     16 N          60.1637   85.1334    7.3089 N.am    1  UNL1       -0.3248
     17 O          60.8962   85.7969    9.7117 O.2     1  UNL1       -0.2697
     18 H          59.8306   85.3882    6.4182 H       1  UNL1        0.1453
     19 H          60.3491   84.1884    7.5134 H       1  UNL1        0.1453
     20 O          60.7044   88.6922   10.4196 O.3     1  UNL1       -0.4740
     21 C          62.7769   90.2065   10.0175 C.3     1  UNL1        0.0523
     22 C          62.0931   89.1194   10.7925 C.3     1  UNL1        0.1891
     23 C          62.7980   88.4595   11.9404 C.ar    1  UNL1        0.0278
     24 C          62.8258   86.9633   12.0432 C.ar    1  UNL1        0.0000
     25 C          63.5307   86.3034   13.1911 C.ar    1  UNL1       -0.0002
     26 C          64.2077   87.1397   14.2362 C.ar    1  UNL1        0.0008
     27 C          64.1799   88.6358   14.1334 C.ar    1  UNL1        0.0112
     28 C          63.4750   89.2958   12.9855 C.ar    1  UNL1        0.0570
     29 CL         63.4471   90.7919   12.8827 Cl      1  UNL1       -0.0825
     30 C          61.7193   93.5815    1.3712 C.ar    1  UNL1        0.0397
     31 C          61.9053   95.0693    1.3267 C.ar    1  UNL1        0.1216
     32 N          62.5475   95.4171    0.0165 N.ar    1  UNL1       -0.1676
     33 N          62.7583   94.1443   -0.7488 N.ar    1  UNL1       -0.2480
     34 C          62.2464   93.0099    0.0885 C.ar    1  UNL1        0.0967
     35 C          63.3730   94.0267   -2.1120 C.3     1  UNL1        0.1448
     36 C          62.5530   93.5256   -3.2637 C.3     1  UNL1        0.0989
     37 N          61.1929   94.1023   -3.5230 N.3     1  UNL1       -0.2667
     38 C          60.0049   93.5937   -2.7614 C.3     1  UNL1        0.1047
     39 C          58.6447   94.1704   -3.0207 C.3     1  UNL1        0.1595
     40 O          58.4725   95.2557   -4.0416 O.3     1  UNL1       -0.3508
     41 C          59.6604   95.7644   -4.8033 C.3     1  UNL1        0.1595
     42 C          61.0206   95.1876   -4.5440 C.3     1  UNL1        0.1047
@<TRIPOS>BOND
     1    22    21    1
     2    22    20    1
     3    20    10    1
     4    10    11   ar
     5    11    12   ar
     6    12     1    1
     7     1     2   ar
     8     2     3   ar
     9     3     4   ar
    10     4     5   ar
    11     5     6   ar
    12     6    30    1
    13    30    31   ar
    14    31    32   ar
    15    32    33   ar
    16    33    35    1
    17    35    36    1
    18    36    37    1
    19    37    38    1
    20    38    39    1
    21    39    40    1
    22    40    41    1
    23    41    42    1
    24    33    34   ar
    25     6     7   ar
    26     7     8   ar
    27     8     9   ar
    28    12    13   ar
    29    13    14   ar
    30    14    15    1
    31    15    16   am
    32    15    17    2
    33    22    23    1
    34    23    24   ar
    35    24    25   ar
    36    25    26   ar
    37    26    27   ar
    38    27    28   ar
    39    28    29    1
    40    14    10   ar
    41    28    23   ar
    42     9     1   ar
    43     9     4   ar
    44    34    30   ar
    45    42    37    1
    46    16    18    1
    47    16    19    1
@<TRIPOS>MOLECULE
*****
 42 47 0 0 0
SMALL
GASTEIGER

@<TRIPOS>ATOM
      1 N          59.9343   88.4652    7.5388 N.ar    1  UNL1       -0.2823
      2 C          59.2040   87.1553    7.5102 C.ar    1  UNL1        0.1831
      3 N          59.6318   86.3599    8.7078 N.ar    1  UNL1       -0.2236
      4 C          60.6264   87.1783    9.4766 C.ar    1  UNL1        0.0991
      5 C          61.3860   86.9067   10.7412 C.ar    1  UNL1        0.0207
      6 C          62.3326   87.9364   11.2833 C.ar    1  UNL1        0.0046
      7 C          62.5195   89.2375   10.5607 C.ar    1  UNL1        0.0017
      8 C          61.7599   89.5090    9.2961 C.ar    1  UNL1        0.0191
      9 C          60.8134   88.4794    8.7541 C.ar    1  UNL1        0.0835
     10 C          60.3598   91.3271    4.9515 C.ar    1  UNL1        0.1512
     11 C          60.9417   90.3181    5.8966 C.ar    1  UNL1        0.0619
     12 C          59.8077   89.5674    6.5293 C.ar    1  UNL1        0.0987
     13 S          58.5247   90.1124    5.9752 S.2     1  UNL1       -0.0618
     14 C          58.8659   91.2000    5.0001 C.ar    1  UNL1        0.1178
     15 C          57.8854   92.0170    4.2119 C.2     1  UNL1        0.2518
     16 N          58.2843   92.5935    2.8859 N.am    1  UNL1       -0.3248
     17 O          56.5060   92.2574    4.7499 O.2     1  UNL1       -0.2697
     18 H          59.1897   92.4357    2.5328 H       1  UNL1        0.1453
     19 H          57.6408   93.1298    2.3686 H       1  UNL1        0.1453
     20 O          61.1354   92.2935    4.1063 O.3     1  UNL1       -0.4740
     21 C          63.0385   90.6815    3.3786 C.3     1  UNL1        0.0523
     22 C          62.0741   91.7834    3.0534 C.3     1  UNL1        0.1891
     23 C          62.0485   92.3752    1.6754 C.ar    1  UNL1        0.0278
     24 C          60.9903   91.9556    0.6985 C.ar    1  UNL1        0.0000
     25 C          60.9647   92.5474   -0.6796 C.ar    1  UNL1       -0.0002
     26 C          61.9972   93.5588   -1.0808 C.ar    1  UNL1        0.0008
     27 C          63.0552   93.9784   -0.1040 C.ar    1  UNL1        0.0112
     28 C          63.0809   93.3866    1.2742 C.ar    1  UNL1        0.0570
     29 CL         64.1390   93.8062    2.2510 Cl      1  UNL1       -0.0825
     30 C          63.0922   87.6649   12.5479 C.ar    1  UNL1        0.0397
     31 C          63.7119   88.6968   13.4430 C.ar    1  UNL1        0.1216
     32 N          64.3682   87.9834   14.5878 N.ar    1  UNL1       -0.1676
     33 N          64.1542   86.5106   14.4002 N.ar    1  UNL1       -0.2480
     34 C          63.3656   86.3138   13.1395 C.ar    1  UNL1        0.0967
     35 C          64.6429   85.4253   15.3130 C.3     1  UNL1        0.1448
     36 C          63.7574   84.2569   15.6302 C.3     1  UNL1        0.0989
     37 N          63.4593   83.2335   14.5748 N.3     1  UNL1       -0.2667
     38 C          64.4392   82.9937   13.4647 C.3     1  UNL1        0.1047
     39 C          64.1411   81.9702   12.4093 C.3     1  UNL1        0.1595
     40 O          62.8632   81.1868   12.4641 O.3     1  UNL1       -0.3508
     41 C          61.8833   81.4266   13.5742 C.3     1  UNL1        0.1595
     42 C          62.1814   82.4500   14.6295 C.3     1  UNL1        0.1047
@<TRIPOS>BOND
     1    22    21    1
     2    22    20    1
     3    20    10    1
     4    10    11   ar
     5    11    12   ar
     6    12     1    1
     7     1     2   ar
     8     2     3   ar
     9     3     4   ar
    10     4     5   ar
    11     5     6   ar
    12     6    30    1
    13    30    31   ar
    14    31    32   ar
    15    32    33   ar
    16    33    35    1
    17    35    36    1
    18    36    37    1
    19    37    38    1
    20    38    39    1
    21    39    40    1
    22    40    41    1
    23    41    42    1
    24    33    34   ar
    25     6     7   ar
    26     7     8   ar
    27     8     9   ar
    28    12    13   ar
    29    13    14   ar
    30    14    15    1
    31    15    16   am
    32    15    17    2
    33    22    23    1
    34    23    24   ar
    35    24    25   ar
    36    25    26   ar
    37    26    27   ar
    38    27    28   ar
    39    28    29    1
    40    14    10   ar
    41    28    23   ar
    42     9     1   ar
    43     9     4   ar
    44    34    30   ar
    45    42    37    1
    46    16    18    1
    47    16    19    1
@<TRIPOS>MOLECULE
*****
 42 47 0 0 0
SMALL
GASTEIGER

@<TRIPOS>ATOM
      1 N          61.0451   86.8426    9.5519 N.ar    1  UNL1       -0.2823
      2 C          60.5185   85.5837    8.9289 C.ar    1  UNL1        0.1831
      3 N          59.8009   85.9568    7.6657 N.ar    1  UNL1       -0.2236
      4 C          59.8839   87.4462    7.5079 C.ar    1  UNL1        0.0991
      5 C          59.3586   88.3746    6.4534 C.ar    1  UNL1        0.0207
      6 C          59.6024   89.8505    6.5646 C.ar    1  UNL1        0.0046
      7 C          60.3713   90.3979    7.7304 C.ar    1  UNL1        0.0017
      8 C          60.8966   89.4695    8.7849 C.ar    1  UNL1        0.0191
      9 C          60.6529   87.9936    8.6737 C.ar    1  UNL1        0.0835
     10 C          62.9250   86.3419   12.9106 C.ar    1  UNL1        0.1512
     11 C          62.1171   85.8014   11.7681 C.ar    1  UNL1        0.0619
     12 C          61.8266   86.9343   10.8289 C.ar    1  UNL1        0.0987
     13 S          62.4550   88.1750   11.3908 S.2     1  UNL1       -0.0618
     14 C          63.1338   87.8089   12.6774 C.ar    1  UNL1        0.1178
     15 C          63.8888   88.7455   13.5735 C.2     1  UNL1        0.2518
     16 N          63.8907   90.2181   13.2883 N.am    1  UNL1       -0.3248
     17 O          64.6420   88.2093   14.7547 O.2     1  UNL1       -0.2697
     18 H          63.3964   90.5700   12.5131 H       1  UNL1        0.1453
     19 H          64.3862   90.8327   13.8764 H       1  UNL1        0.1453
     20 O          63.4345   85.5539   14.0807 O.3     1  UNL1       -0.4740
     21 C          65.6460   84.2886   14.5891 C.3     1  UNL1        0.0523
     22 C          64.3401   84.3793   13.8567 C.3     1  UNL1        0.1891
     23 C          63.9397   83.2953   12.9004 C.ar    1  UNL1        0.0278
     24 C          64.5526   83.2379   11.5325 C.ar    1  UNL1        0.0000
     25 C          64.1522   82.1539   10.5761 C.ar    1  UNL1       -0.0002
     26 C          63.1390   81.1273   10.9876 C.ar    1  UNL1        0.0008
     27 C          62.5261   81.1846   12.3555 C.ar    1  UNL1        0.0112
     28 C          62.9265   82.2686   13.3119 C.ar    1  UNL1        0.0570
     29 CL         62.3137   82.3260   14.6797 Cl      1  UNL1       -0.0825
     30 C          59.0771   90.7790    5.5100 C.ar    1  UNL1        0.0397
     31 C          57.6368   91.1314    5.2836 C.ar    1  UNL1        0.1216
     32 N          57.5695   92.0883    4.1304 N.ar    1  UNL1       -0.1676
     33 N          58.9683   92.3273    3.6441 N.ar    1  UNL1       -0.2480
     34 C          59.9000   91.5181    4.4968 C.ar    1  UNL1        0.0967
     35 C          59.3655   93.2189    2.5052 C.3     1  UNL1        0.1448
     36 C          60.0115   92.6335    1.2845 C.3     1  UNL1        0.0989
     37 N          61.4585   92.9057    0.9982 N.3     1  UNL1       -0.2667
     38 C          62.5022   92.5659    2.0206 C.3     1  UNL1        0.1047
     39 C          63.9493   92.8381    1.7343 C.3     1  UNL1        0.1595
     40 O          64.3526   93.4501    0.4255 O.3     1  UNL1       -0.3508
     41 C          63.3089   93.7899   -0.5969 C.3     1  UNL1        0.1595
     42 C          61.8619   93.5177   -0.3105 C.3     1  UNL1        0.1047
@<TRIPOS>BOND
     1    22    21    1
     2    22    20    1
     3    20    10    1
     4    10    11   ar
     5    11    12   ar
     6    12     1    1
     7     1     2   ar
     8     2     3   ar
     9     3     4   ar
    10     4     5   ar
    11     5     6   ar
    12     6    30    1
    13    30    31   ar
    14    31    32   ar
    15    32    33   ar
    16    33    35    1
    17    35    36    1
    18    36    37    1
    19    37    38    1
    20    38    39    1
    21    39    40    1
    22    40    41    1
    23    41    42    1
    24    33    34   ar
    25     6     7   ar
    26     7     8   ar
    27     8     9   ar
    28    12    13   ar
    29    13    14   ar
    30    14    15    1
    31    15    16   am
    32    15    17    2
    33    22    23    1
    34    23    24   ar
    35    24    25   ar
    36    25    26   ar
    37    26    27   ar
    38    27    28   ar
    39    28    29    1
    40    14    10   ar
    41    28    23   ar
    42     9     1   ar
    43     9     4   ar
    44    34    30   ar
    45    42    37    1
    46    16    18    1
    47    16    19    1
@<TRIPOS>MOLECULE
*****
 42 47 0 0 0
SMALL
GASTEIGER

@<TRIPOS>ATOM
      1 N          62.0686   87.4410   10.9374 N.ar    1  UNL1       -0.2823
      2 C          62.4619   88.6691   11.7036 C.ar    1  UNL1        0.1831
      3 N          61.9336   89.8641   10.9668 N.ar    1  UNL1       -0.2236
      4 C          61.2138   89.3745    9.7453 C.ar    1  UNL1        0.0991
      5 C          60.4932   90.0990    8.6471 C.ar    1  UNL1        0.0207
      6 C          59.8560   89.3258    7.5309 C.ar    1  UNL1        0.0046
      7 C          59.9394   87.8282    7.5127 C.ar    1  UNL1        0.0017
      8 C          60.6600   87.1038    8.6108 C.ar    1  UNL1        0.0191
      9 C          61.2972   87.8770    9.7271 C.ar    1  UNL1        0.0835
     10 C          62.6643   83.9846   12.6000 C.ar    1  UNL1        0.1512
     11 C          62.2221   85.4159   12.6754 C.ar    1  UNL1        0.0619
     12 C          62.3901   86.0254   11.3152 C.ar    1  UNL1        0.0987
     13 S          62.9363   84.9707   10.3990 S.2     1  UNL1       -0.0618
     14 C          63.1057   83.7095   11.1930 C.ar    1  UNL1        0.1178
     15 C          63.6253   82.4024   10.6716 C.2     1  UNL1        0.2518
     16 N          62.9639   81.1179   11.0747 N.am    1  UNL1       -0.3248
     17 O          64.8063   82.3800    9.7471 O.2     1  UNL1       -0.2697
     18 H          62.1888   81.1326   11.6815 H       1  UNL1        0.1453
     19 H          63.3050   80.2601   10.7325 H       1  UNL1        0.1453
     20 O          62.6650   83.0011   13.7325 O.3     1  UNL1       -0.4740
     21 C          64.3363   82.2508   15.5747 C.3     1  UNL1        0.0523
     22 C          63.4395   83.2972   14.9825 C.3     1  UNL1        0.1891
     23 C          63.3173   84.6398   15.6402 C.ar    1  UNL1        0.0278
     24 C          62.1937   84.9065   16.5975 C.ar    1  UNL1        0.0000
     25 C          62.0715   86.2491   17.2552 C.ar    1  UNL1       -0.0002
     26 C          63.0729   87.3249   16.9555 C.ar    1  UNL1        0.0008
     27 C          64.1964   87.0583   15.9983 C.ar    1  UNL1        0.0112
     28 C          64.3187   85.7157   15.3405 C.ar    1  UNL1        0.0570
     29 CL         65.4422   85.4490   14.3833 Cl      1  UNL1       -0.0825
     30 C          59.1353   90.0502    6.4327 C.ar    1  UNL1        0.0397
     31 C          57.6530   90.0535    6.2033 C.ar    1  UNL1        0.1216
     32 N          57.3720   90.9038    4.9999 N.ar    1  UNL1       -0.1676
     33 N          58.6808   91.4260    4.4856 N.ar    1  UNL1       -0.2480
     34 C          59.7705   90.8984    5.3710 C.ar    1  UNL1        0.0967
     35 C          58.8671   92.3190    3.2948 C.3     1  UNL1        0.1448
     36 C          60.1657   93.0429    3.0961 C.3     1  UNL1        0.0989
     37 N          60.8074   93.0737    1.7407 N.3     1  UNL1       -0.2667
     38 C          62.2473   93.4703    1.6014 C.3     1  UNL1        0.1047
     39 C          62.8890   93.5011    0.2459 C.3     1  UNL1        0.1595
     40 O          62.0908   93.1353   -0.9702 O.3     1  UNL1       -0.3508
     41 C          60.6509   92.7387   -0.8310 C.3     1  UNL1        0.1595
     42 C          60.0092   92.7079    0.5245 C.3     1  UNL1        0.1047
@<TRIPOS>BOND
     1    22    21    1
     2    22    20    1
     3    20    10    1
     4    10    11   ar
     5    11    12   ar
     6    12     1    1
     7     1     2   ar
     8     2     3   ar
     9     3     4   ar
    10     4     5   ar
    11     5     6   ar
    12     6    30    1
    13    30    31   ar
    14    31    32   ar
    15    32    33   ar
    16    33    35    1
    17    35    36    1
    18    36    37    1
    19    37    38    1
    20    38    39    1
    21    39    40    1
    22    40    41    1
    23    41    42    1
    24    33    34   ar
    25     6     7   ar
    26     7     8   ar
    27     8     9   ar
    28    12    13   ar
    29    13    14   ar
    30    14    15    1
    31    15    16   am
    32    15    17    2
    33    22    23    1
    34    23    24   ar
    35    24    25   ar
    36    25    26   ar
    37    26    27   ar
    38    27    28   ar
    39    28    29    1
    40    14    10   ar
    41    28    23   ar
    42     9     1   ar
    43     9     4   ar
    44    34    30   ar
    45    42    37    1
    46    16    18    1
    47    16    19    1
@<TRIPOS>MOLECULE
*****
 42 47 0 0 0
SMALL
GASTEIGER

@<TRIPOS>ATOM
      1 N          62.8394   84.8742   14.6107 N.ar    1  UNL1       -0.2823
      2 C          62.3941   84.4787   15.9874 C.ar    1  UNL1        0.1831
      3 N          62.5863   85.6585   16.8935 N.ar    1  UNL1       -0.2236
      4 C          63.1504   86.7832   16.0769 C.ar    1  UNL1        0.0991
      5 C          63.5418   88.1861   16.4357 C.ar    1  UNL1        0.0207
      6 C          64.0896   89.1042   15.3836 C.ar    1  UNL1        0.0046
      7 C          64.2461   88.6194   13.9728 C.ar    1  UNL1        0.0017
      8 C          63.8547   87.2166   13.6140 C.ar    1  UNL1        0.0191
      9 C          63.3068   86.2985   14.6660 C.ar    1  UNL1        0.0835
     10 C          62.7852   83.2616   11.0805 C.ar    1  UNL1        0.1512
     11 C          62.7989   84.4703   11.9687 C.ar    1  UNL1        0.0619
     12 C          62.8207   83.9991   13.3926 C.ar    1  UNL1        0.0987
     13 S          62.8204   82.4992   13.3845 S.2     1  UNL1       -0.0618
     14 C          62.7985   82.0433   11.9556 C.ar    1  UNL1        0.1178
     15 C          62.7912   80.6192   11.4844 C.2     1  UNL1        0.2518
     16 N          63.0207   80.3075   10.0353 N.am    1  UNL1       -0.3248
     17 O          62.5543   79.5069   12.4625 O.2     1  UNL1       -0.2697
     18 H          63.1761   81.0375    9.3933 H       1  UNL1        0.1453
     19 H          63.0158   79.3728    9.7261 H       1  UNL1        0.1453
     20 O          62.7622   83.2697    9.5808 O.3     1  UNL1       -0.4740
     21 C          64.1497   84.9751    8.1964 C.3     1  UNL1        0.0523
     22 C          62.8553   84.5685    8.8363 C.3     1  UNL1        0.1891
     23 C          61.6541   85.4608    8.7316 C.ar    1  UNL1        0.0278
     24 C          61.2986   86.3761    9.8655 C.ar    1  UNL1        0.0000
     25 C          60.0974   87.2684    9.7608 C.ar    1  UNL1       -0.0002
     26 C          59.2517   87.2453    8.5222 C.ar    1  UNL1        0.0008
     27 C          59.6072   86.3301    7.3883 C.ar    1  UNL1        0.0112
     28 C          60.8085   85.4378    7.4929 C.ar    1  UNL1        0.0570
     29 CL         61.1640   84.5226    6.3590 Cl      1  UNL1       -0.0825
     30 C          64.4811   90.5071   15.7424 C.ar    1  UNL1        0.0397
     31 C          63.8359   91.3611   16.7933 C.ar    1  UNL1        0.1216
     32 N          64.5425   92.6841   16.8137 N.ar    1  UNL1       -0.1676
     33 N          65.6244   92.6478   15.7753 N.ar    1  UNL1       -0.2480
     34 C          65.5864   91.3023   15.1133 C.ar    1  UNL1        0.0967
     35 C          66.5770   93.7613   15.4552 C.3     1  UNL1        0.1448
     36 C          67.5137   93.6354   14.2904 C.3     1  UNL1        0.0989
     37 N          66.9772   93.6650   12.8900 N.3     1  UNL1       -0.2667
     38 C          67.0194   92.4268   12.0444 C.3     1  UNL1        0.1047
     39 C          66.4829   92.4563   10.6439 C.3     1  UNL1        0.1595
     40 O          65.9041   93.7241   10.0891 O.3     1  UNL1       -0.3508
     41 C          65.8619   94.9623   10.9347 C.3     1  UNL1        0.1595
     42 C          66.3984   94.9327   12.3351 C.3     1  UNL1        0.1047
@<TRIPOS>BOND
     1    22    21    1
     2    22    20    1
     3    20    10    1
     4    10    11   ar
     5    11    12   ar
     6    12     1    1
     7     1     2   ar
     8     2     3   ar
     9     3     4   ar
    10     4     5   ar
    11     5     6   ar
    12     6    30    1
    13    30    31   ar
    14    31    32   ar
    15    32    33   ar
    16    33    35    1
    17    35    36    1
    18    36    37    1
    19    37    38    1
    20    38    39    1
    21    39    40    1
    22    40    41    1
    23    41    42    1
    24    33    34   ar
    25     6     7   ar
    26     7     8   ar
    27     8     9   ar
    28    12    13   ar
    29    13    14   ar
    30    14    15    1
    31    15    16   am
    32    15    17    2
    33    22    23    1
    34    23    24   ar
    35    24    25   ar
    36    25    26   ar
    37    26    27   ar
    38    27    28   ar
    39    28    29    1
    40    14    10   ar
    41    28    23   ar
    42     9     1   ar
    43     9     4   ar
    44    34    30   ar
    45    42    37    1
    46    16    18    1
    47    16    19    1
@<TRIPOS>MOLECULE
*****
 42 47 0 0 0
SMALL
GASTEIGER

@<TRIPOS>ATOM
      1 N          60.1787   88.8287    7.8793 N.ar    1  UNL1       -0.2823
      2 C          59.9179   87.3549    7.9793 C.ar    1  UNL1        0.1831
      3 N          60.5782   86.8510    9.2283 N.ar    1  UNL1       -0.2236
      4 C          61.2471   88.0133    9.9003 C.ar    1  UNL1        0.0991
      5 C          62.0492   88.1166   11.1636 C.ar    1  UNL1        0.0207
      6 C          62.6043   89.4422   11.5932 C.ar    1  UNL1        0.0046
      7 C          62.3575   90.6645   10.7595 C.ar    1  UNL1        0.0017
      8 C          61.5554   90.5612    9.4962 C.ar    1  UNL1        0.0191
      9 C          61.0003   89.2356    9.0666 C.ar    1  UNL1        0.0835
     10 C          59.6784   91.3082    4.9353 C.ar    1  UNL1        0.1512
     11 C          60.5710   90.5535    5.8753 C.ar    1  UNL1        0.0619
     12 C          59.7018   89.7362    6.7844 C.ar    1  UNL1        0.0987
     13 S          58.2719   89.9858    6.4063 S.2     1  UNL1       -0.0618
     14 C          58.2574   90.9573    5.2635 C.ar    1  UNL1        0.1178
     15 C          57.0362   91.4853    4.5705 C.2     1  UNL1        0.2518
     16 N          57.1675   92.1913    3.2536 N.am    1  UNL1       -0.3248
     17 O          55.6839   91.3073    5.1946 O.2     1  UNL1       -0.2697
     18 H          58.0551   92.3082    2.8441 H       1  UNL1        0.1453
     19 H          56.3660   92.5378    2.7988 H       1  UNL1        0.1453
     20 O          60.1278   92.2486    3.8567 O.3     1  UNL1       -0.4740
     21 C          62.3227   90.8859    3.5827 C.3     1  UNL1        0.0523
     22 C          61.4442   92.0301    3.1716 C.3     1  UNL1        0.1891
     23 C          61.8820   92.9558    2.0755 C.ar    1  UNL1        0.0278
     24 C          63.1499   93.7440    2.2213 C.ar    1  UNL1        0.0000
     25 C          63.5877   94.6697    1.1252 C.ar    1  UNL1       -0.0002
     26 C          62.7577   94.8071   -0.1166 C.ar    1  UNL1        0.0008
     27 C          61.4899   94.0189   -0.2624 C.ar    1  UNL1        0.0112
     28 C          61.0520   93.0932    0.8337 C.ar    1  UNL1        0.0570
     29 CL         59.7842   92.3050    0.6879 Cl      1  UNL1       -0.0825
     30 C          63.4064   89.5455   12.8566 C.ar    1  UNL1        0.0397
     31 C          63.9337   88.3958   13.6627 C.ar    1  UNL1        0.1216
     32 N          64.6751   88.9565   14.8400 N.ar    1  UNL1       -0.1676
     33 N          64.6061   90.4529   14.7614 N.ar    1  UNL1       -0.2480
     34 C          63.8219   90.8169   13.5356 C.ar    1  UNL1        0.0967
     35 C          65.2143   91.4160   15.7373 C.3     1  UNL1        0.1448
     36 C          65.9890   92.5998   15.2388 C.3     1  UNL1        0.0989
     37 N          66.6778   92.5388   13.9077 N.3     1  UNL1       -0.2667
     38 C          67.9220   91.7172   13.7441 C.3     1  UNL1        0.1047
     39 C          68.6109   91.6561   12.4130 C.3     1  UNL1        0.1595
     40 O          68.0554   92.4169   11.2456 O.3     1  UNL1       -0.3508
     41 C          66.8112   93.2385   11.4092 C.3     1  UNL1        0.1595
     42 C          66.1224   93.2995   12.7403 C.3     1  UNL1        0.1047
@<TRIPOS>BOND
     1    22    21    1
     2    22    20    1
     3    20    10    1
     4    10    11   ar
     5    11    12   ar
     6    12     1    1
     7     1     2   ar
     8     2     3   ar
     9     3     4   ar
    10     4     5   ar
    11     5     6   ar
    12     6    30    1
    13    30    31   ar
    14    31    32   ar
    15    32    33   ar
    16    33    35    1
    17    35    36    1
    18    36    37    1
    19    37    38    1
    20    38    39    1
    21    39    40    1
    22    40    41    1
    23    41    42    1
    24    33    34   ar
    25     6     7   ar
    26     7     8   ar
    27     8     9   ar
    28    12    13   ar
    29    13    14   ar
    30    14    15    1
    31    15    16   am
    32    15    17    2
    33    22    23    1
    34    23    24   ar
    35    24    25   ar
    36    25    26   ar
    37    26    27   ar
    38    27    28   ar
    39    28    29    1
    40    14    10   ar
    41    28    23   ar
    42     9     1   ar
    43     9     4   ar
    44    34    30   ar
    45    42    37    1
    46    16    18    1
    47    16    19    1
