@<TRIPOS>MOLECULE
*****
 36 40 0 0 0
SMALL
GASTEIGER

@<TRIPOS>ATOM
      1 N          65.4389   92.7977   11.8835 N.ar    1  UNL1       -0.2756
      2 C          66.3274   93.5181   12.8540 C.ar    1  UNL1        0.3342
      3 O          67.1986   94.6436   12.3802 O.2     1  UNL1       -0.2462
      4 N          66.3446   93.1131   14.2981 N.ar    1  UNL1       -0.2467
      5 C          67.2331   93.8336   15.2685 C.3     1  UNL1        0.1382
      6 C          65.4735   91.9877   14.7719 C.ar    1  UNL1        0.2664
      7 O          65.4907   91.5827   16.2160 O.2     1  UNL1       -0.2668
      8 C          64.5850   91.2673   13.8015 C.ar    1  UNL1        0.0863
      9 C          63.6242   90.1286   13.9751 C.ar    1  UNL1        0.1009
     10 C          63.0131   89.8299   12.6382 C.ar    1  UNL1        0.1808
     11 S          63.5962   90.7839   11.6383 S.2     1  UNL1       -0.0324
     12 C          64.5678   91.6723   12.3573 C.ar    1  UNL1        0.1014
     13 C          63.3267   89.4142   15.2600 C.2     1  UNL1        0.2528
     14 O          62.6892   90.1534   16.3990 O.2     1  UNL1       -0.2698
     15 N          63.6666   87.9605   15.4059 N.am    1  UNL1       -0.2734
     16 C          63.4297   87.1175   16.6238 C.3     1  UNL1        0.0964
     17 C          63.9197   85.7307   16.3302 C.3     1  UNL1        0.0525
     18 C          64.4595   85.7164   14.9307 C.3     1  UNL1        0.1320
     19 O          65.0518   84.5319   14.2261 O.3     1  UNL1       -0.3827
     20 C          64.3030   87.0945   14.3595 C.3     1  UNL1        0.1228
     21 H          65.3239   84.7905   13.3317 H       1  UNL1        0.2104
     22 C          65.4217   93.2027   10.4393 C.3     1  UNL1        0.1109
     23 C          67.7431   92.2897    9.7128 C.3     1  UNL1        0.0020
     24 C          66.7116   93.3788    9.6943 C.3     1  UNL1        0.0228
     25 C          66.9702   94.6437    8.9308 C.3     1  UNL1        0.0020
     26 O          61.9972   88.7642   12.3514 O.3     1  UNL1       -0.4469
     27 C          61.3357   88.7009   11.0066 C.ar    1  UNL1        0.1459
     28 C          60.4441   89.8198   10.5559 C.ar    1  UNL1        0.0375
     29 C          59.7827   89.7565    9.2111 C.ar    1  UNL1        0.0031
     30 C          60.0129   88.5743    8.3170 C.ar    1  UNL1        0.0002
     31 C          60.9045   87.4554    8.7677 C.ar    1  UNL1        0.0029
     32 C          61.1346   86.2732    7.8736 C.ar    1  UNL1        0.0001
     33 C          62.0262   85.1544    8.3243 C.ar    1  UNL1        0.0000
     34 C          62.6877   85.2177    9.6691 C.ar    1  UNL1        0.0001
     35 C          62.4575   86.3998   10.5632 C.ar    1  UNL1        0.0030
     36 C          61.5659   87.5187   10.1125 C.ar    1  UNL1        0.0346
@<TRIPOS>BOND
     1    23    24    1
     2    24    25    1
     3    24    22    1
     4    22     1    1
     5     1     2   ar
     6     2     3    2
     7     2     4   ar
     8     4     5    1
     9     4     6   ar
    10     6     7    2
    11     6     8   ar
    12     8     9   ar
    13     9    13    1
    14    13    14    2
    15    13    15   am
    16    15    16    1
    17    16    17    1
    18    17    18    1
    19    18    19    1
    20    18    20    1
    21     9    10   ar
    22    10    26    1
    23    26    27    1
    24    27    28   ar
    25    28    29   ar
    26    29    30   ar
    27    30    31   ar
    28    31    32   ar
    29    32    33   ar
    30    33    34   ar
    31    34    35   ar
    32    35    36   ar
    33    10    11   ar
    34    11    12   ar
    35    12     1   ar
    36    12     8   ar
    37    20    15    1
    38    36    27   ar
    39    36    31   ar
    40    19    21    1
@<TRIPOS>MOLECULE
*****
 36 40 0 0 0
SMALL
GASTEIGER

@<TRIPOS>ATOM
      1 N          62.9962   89.2276   11.1390 N.ar    1  UNL1       -0.2756
      2 C          62.8451   87.9211   11.8602 C.ar    1  UNL1        0.3342
      3 O          62.1600   86.7683   11.1882 O.2     1  UNL1       -0.2462
      4 N          63.3791   87.7673   13.2535 N.ar    1  UNL1       -0.2467
      5 C          63.2280   86.4608   13.9746 C.3     1  UNL1        0.1382
      6 C          64.0643   88.9201   13.9255 C.ar    1  UNL1        0.2664
      7 O          64.5983   88.7664   15.3187 O.2     1  UNL1       -0.2668
      8 C          64.2154   90.2266   13.2043 C.ar    1  UNL1        0.0863
      9 C          64.8396   91.5295   13.6079 C.ar    1  UNL1        0.1009
     10 C          64.6914   92.4885   12.4640 C.ar    1  UNL1        0.1808
     11 S          63.9755   91.7783   11.3535 S.2     1  UNL1       -0.0324
     12 C          63.6814   90.3804   11.8110 C.ar    1  UNL1        0.1014
     13 C          65.4967   91.8220   14.9242 C.2     1  UNL1        0.2528
     14 O          64.6672   91.9278   16.1694 O.2     1  UNL1       -0.2698
     15 N          66.9834   92.0088   14.9952 N.am    1  UNL1       -0.2734
     16 C          67.7766   92.3046   16.2334 C.3     1  UNL1        0.0964
     17 C          69.2212   92.4111   15.8440 C.3     1  UNL1        0.0525
     18 C          69.3208   92.1811   14.3650 C.3     1  UNL1        0.1320
     19 O          70.5821   92.1970   13.5532 O.3     1  UNL1       -0.3827
     20 C          67.9377   91.9324   13.8405 C.3     1  UNL1        0.1228
     21 H          70.3703   92.0200   12.6232 H       1  UNL1        0.2104
     22 C          62.4622   89.3814    9.7457 C.3     1  UNL1        0.1109
     23 C          60.3454   88.8271    8.3451 C.3     1  UNL1        0.0020
     24 C          60.9850   89.5083    9.5185 C.3     1  UNL1        0.0228
     25 C          60.1473   90.3165   10.4646 C.3     1  UNL1        0.0020
     26 O          65.1742   93.9084   12.4356 O.3     1  UNL1       -0.4469
     27 C          65.7028   94.4954   11.1605 C.ar    1  UNL1        0.1459
     28 C          65.1894   95.8183   10.6744 C.ar    1  UNL1        0.0375
     29 C          65.7180   96.4054    9.3993 C.ar    1  UNL1        0.0031
     30 C          66.7601   95.6696    8.6103 C.ar    1  UNL1        0.0002
     31 C          67.2737   94.3466    9.0964 C.ar    1  UNL1        0.0029
     32 C          68.3158   93.6109    8.3074 C.ar    1  UNL1        0.0001
     33 C          68.8292   92.2880    8.7935 C.ar    1  UNL1        0.0000
     34 C          68.3006   91.7009   10.0686 C.ar    1  UNL1        0.0001
     35 C          67.2585   92.4367   10.8576 C.ar    1  UNL1        0.0030
     36 C          66.7450   93.7596   10.3715 C.ar    1  UNL1        0.0346
@<TRIPOS>BOND
     1    23    24    1
     2    24    25    1
     3    24    22    1
     4    22     1    1
     5     1     2   ar
     6     2     3    2
     7     2     4   ar
     8     4     5    1
     9     4     6   ar
    10     6     7    2
    11     6     8   ar
    12     8     9   ar
    13     9    13    1
    14    13    14    2
    15    13    15   am
    16    15    16    1
    17    16    17    1
    18    17    18    1
    19    18    19    1
    20    18    20    1
    21     9    10   ar
    22    10    26    1
    23    26    27    1
    24    27    28   ar
    25    28    29   ar
    26    29    30   ar
    27    30    31   ar
    28    31    32   ar
    29    32    33   ar
    30    33    34   ar
    31    34    35   ar
    32    35    36   ar
    33    10    11   ar
    34    11    12   ar
    35    12     1   ar
    36    12     8   ar
    37    20    15    1
    38    36    27   ar
    39    36    31   ar
    40    19    21    1
