@<TRIPOS>MOLECULE
*****
 32 36 0 0 0
SMALL
GASTEIGER

@<TRIPOS>ATOM
      1 C          64.4564   86.6638   15.0192 C.3     1  UNL1        0.0730
      2 N          63.9682   85.7908   13.9013 N.3     1  UNL1       -0.2724
      3 C          64.2220   84.3196   13.7563 C.3     1  UNL1        0.0724
      4 C          63.5511   83.8553   12.4975 C.3     1  UNL1        0.0214
      5 C          62.7941   83.6915   11.2130 C.3     1  UNL1        0.0072
      6 C          62.8827   85.0396   11.8646 C.3     1  UNL1        0.0350
      7 C          63.1405   86.2358   12.7322 C.3     1  UNL1        0.0761
      8 C          62.0735   85.7665   10.8317 C.ar    1  UNL1       -0.0215
      9 C          61.0920   86.8197   11.2528 C.ar    1  UNL1       -0.0043
     10 C          60.2827   87.5466   10.2199 C.ar    1  UNL1        0.0035
     11 C          60.4551   87.2203    8.7660 C.ar    1  UNL1        0.0714
     12 C          61.4367   86.1670    8.3450 C.ar    1  UNL1        0.0035
     13 C          62.2459   85.4402    9.3778 C.ar    1  UNL1       -0.0043
     14 C          59.6459   87.9472    7.7331 C.3     1  UNL1        0.4186
     15 F          58.8367   88.6740    6.7002 F       1  UNL1       -0.1659
     16 F          60.2955   89.2387    8.1331 F       1  UNL1       -0.1659
     17 F          58.9963   86.6556    7.3331 F       1  UNL1       -0.1659
     18 C          63.8829   88.0375   15.2033 C.3     1  UNL1        0.0294
     19 C          64.4927   89.2068   14.4887 C.3     1  UNL1        0.0666
     20 S          63.6191   90.3193   13.9893 S.3     1  UNL1       -0.0756
     21 C          65.0739   92.5426   11.1600 C.ar    1  UNL1        0.2029
     22 N          63.9995   91.8004   10.4219 N.ar    1  UNL1       -0.1250
     23 N          63.3238   90.8772   11.3919 N.ar    1  UNL1       -0.1220
     24 C          63.9805   91.0488   12.7295 C.ar    1  UNL1        0.1933
     25 N          65.0621   92.0782   12.5861 N.ar    1  UNL1       -0.2860
     26 C          65.9722   92.5586   13.6774 C.3     1  UNL1        0.1341
     27 C          68.0269   91.9670    9.8957 C.3     1  UNL1        0.0556
     28 C          67.3551   93.3046    9.9935 C.ar    1  UNL1        0.1001
     29 N          67.9227   94.6124    9.5273 N.ar    1  UNL1       -0.2085
     30 C          66.9162   95.6853    9.8203 C.ar    1  UNL1        0.2849
     31 O          65.7266   95.0406   10.4675 O.2     1  UNL1       -0.4283
     32 C          65.9978   93.5692   10.5745 C.ar    1  UNL1        0.1964
@<TRIPOS>BOND
     1    27    28    1
     2    28    29   ar
     3    29    30   ar
     4    30    31   ar
     5    31    32   ar
     6    32    21    1
     7    21    22   ar
     8    22    23   ar
     9    23    24   ar
    10    24    20    1
    11    20    19    1
    12    19    18    1
    13    18     1    1
    14     1     2    1
    15     2     3    1
    16     3     4    1
    17     4     5    1
    18     5     6    1
    19     6     8    1
    20     8     9   ar
    21     9    10   ar
    22    10    11   ar
    23    11    14    1
    24    14    15    1
    25    14    16    1
    26    14    17    1
    27    11    12   ar
    28    12    13   ar
    29     6     7    1
    30    24    25   ar
    31    25    26    1
    32    32    28   ar
    33    25    21   ar
    34     7     2    1
    35     6     4    1
    36    13     8   ar
@<TRIPOS>MOLECULE
*****
 32 36 0 0 0
SMALL
GASTEIGER

@<TRIPOS>ATOM
      1 C          64.2208   84.9291   15.2855 C.3     1  UNL1        0.0730
      2 N          63.9056   86.3538   15.6333 N.3     1  UNL1       -0.2724
      3 C          63.2450   86.8283   16.8936 C.3     1  UNL1        0.0724
      4 C          63.1267   88.3219   16.8211 C.3     1  UNL1        0.0214
      5 C          63.1474   89.7799   16.4696 C.3     1  UNL1        0.0072
      6 C          63.7142   88.7705   15.5158 C.3     1  UNL1        0.0350
      7 C          64.1955   87.5541   14.7818 C.3     1  UNL1        0.0761
      8 C          64.1226   89.7597   14.4649 C.ar    1  UNL1       -0.0215
      9 C          65.3267   90.6280   14.6798 C.ar    1  UNL1       -0.0043
     10 C          65.7352   91.6174   13.6289 C.ar    1  UNL1        0.0035
     11 C          64.9395   91.7384   12.3630 C.ar    1  UNL1        0.0714
     12 C          63.7354   90.8700   12.1482 C.ar    1  UNL1        0.0035
     13 C          63.3269   89.8807   13.1991 C.ar    1  UNL1       -0.0043
     14 C          65.3480   92.7277   11.3121 C.3     1  UNL1        0.4186
     15 F          65.7564   93.7169   10.2612 F       1  UNL1       -0.1659
     16 F          66.4364   93.2339   12.2116 F       1  UNL1       -0.1659
     17 F          64.2596   92.2214   10.4126 F       1  UNL1       -0.1659
     18 C          64.8588   84.6023   13.9679 C.3     1  UNL1        0.0294
     19 C          64.2596   83.5474   13.0857 C.3     1  UNL1        0.0666
     20 S          63.8688   83.8815   11.6765 S.3     1  UNL1       -0.0756
     21 C          61.2945   86.4271   10.2773 C.ar    1  UNL1        0.2029
     22 N          61.0614   86.5605   11.7530 N.ar    1  UNL1       -0.1250
     23 N          61.9973   85.6232   12.4567 N.ar    1  UNL1       -0.1220
     24 C          62.8089   84.9104   11.4160 C.ar    1  UNL1        0.1933
     25 N          62.3745   85.4073   10.0690 N.ar    1  UNL1       -0.2860
     26 C          62.9239   84.9623    8.7460 C.3     1  UNL1        0.1341
     27 C          61.3118   89.6637    9.8605 C.3     1  UNL1        0.0556
     28 C          60.5820   88.6687    9.0075 C.ar    1  UNL1        0.1001
     29 N          59.7320   88.9869    7.8132 N.ar    1  UNL1       -0.2085
     30 C          59.1988   87.6958    7.2667 C.ar    1  UNL1        0.2849
     31 O          59.7191   86.5798    8.1232 O.2     1  UNL1       -0.4283
     32 C          60.5740   87.1811    9.1991 C.ar    1  UNL1        0.1964
@<TRIPOS>BOND
     1    27    28    1
     2    28    29   ar
     3    29    30   ar
     4    30    31   ar
     5    31    32   ar
     6    32    21    1
     7    21    22   ar
     8    22    23   ar
     9    23    24   ar
    10    24    20    1
    11    20    19    1
    12    19    18    1
    13    18     1    1
    14     1     2    1
    15     2     3    1
    16     3     4    1
    17     4     5    1
    18     5     6    1
    19     6     8    1
    20     8     9   ar
    21     9    10   ar
    22    10    11   ar
    23    11    14    1
    24    14    15    1
    25    14    16    1
    26    14    17    1
    27    11    12   ar
    28    12    13   ar
    29     6     7    1
    30    24    25   ar
    31    25    26    1
    32    32    28   ar
    33    25    21   ar
    34     7     2    1
    35     6     4    1
    36    13     8   ar
@<TRIPOS>MOLECULE
*****
 32 36 0 0 0
SMALL
GASTEIGER

@<TRIPOS>ATOM
      1 C          63.3396   83.9045   15.3474 C.3     1  UNL1        0.0730
      2 N          63.5154   83.7747   13.8634 N.3     1  UNL1       -0.2724
      3 C          64.3976   82.7839   13.1634 C.3     1  UNL1        0.0724
      4 C          64.2673   83.0097   11.6863 C.3     1  UNL1        0.0214
      5 C          63.9382   83.4624   10.2946 C.3     1  UNL1        0.0072
      6 C          63.3046   84.1401   11.4733 C.3     1  UNL1        0.0350
      7 C          62.8399   84.6128   12.8188 C.3     1  UNL1        0.0761
      8 C          62.4966   85.1199   10.6751 C.ar    1  UNL1       -0.0215
      9 C          62.6323   85.1635    9.1819 C.ar    1  UNL1       -0.0043
     10 C          61.8243   86.1434    8.3837 C.ar    1  UNL1        0.0035
     11 C          60.8806   87.0796    9.0788 C.ar    1  UNL1        0.0714
     12 C          60.7449   87.0359   10.5720 C.ar    1  UNL1        0.0035
     13 C          61.5529   86.0561   11.3702 C.ar    1  UNL1       -0.0043
     14 C          60.0726   88.0594    8.2806 C.3     1  UNL1        0.4186
     15 F          59.2646   89.0393    7.4825 F       1  UNL1       -0.1659
     16 F          59.5812   86.9431    7.4076 F       1  UNL1       -0.1659
     17 F          60.5640   89.1758    9.1536 F       1  UNL1       -0.1659
     18 C          62.7448   85.1543   15.9257 C.3     1  UNL1        0.0294
     19 C          63.6352   86.2935   16.3248 C.3     1  UNL1        0.0666
     20 S          63.0387   87.5516   16.8832 S.3     1  UNL1       -0.0756
     21 C          63.9457   90.5410   14.5798 C.ar    1  UNL1        0.2029
     22 N          63.5314   91.2553   15.8321 N.ar    1  UNL1       -0.1250
     23 N          63.1413   90.2224   16.8473 N.ar    1  UNL1       -0.1220
     24 C          63.3144   88.8697   16.2225 C.ar    1  UNL1        0.1933
     25 N          63.8115   89.0667   14.8211 N.ar    1  UNL1       -0.2860
     26 C          64.1203   87.9800   13.8342 C.3     1  UNL1        0.1341
     27 C          62.4504   90.3789   11.6836 C.3     1  UNL1        0.0556
     28 C          63.7249   91.1131   11.9780 C.ar    1  UNL1        0.1001
     29 N          64.5358   91.9017   10.9929 N.ar    1  UNL1       -0.2085
     30 C          65.7242   92.4637   11.7153 C.ar    1  UNL1        0.2849
     31 O          65.6478   92.0223   13.1467 O.2     1  UNL1       -0.4283
     32 C          64.4121   91.1877   13.3092 C.ar    1  UNL1        0.1964
@<TRIPOS>BOND
     1    27    28    1
     2    28    29   ar
     3    29    30   ar
     4    30    31   ar
     5    31    32   ar
     6    32    21    1
     7    21    22   ar
     8    22    23   ar
     9    23    24   ar
    10    24    20    1
    11    20    19    1
    12    19    18    1
    13    18     1    1
    14     1     2    1
    15     2     3    1
    16     3     4    1
    17     4     5    1
    18     5     6    1
    19     6     8    1
    20     8     9   ar
    21     9    10   ar
    22    10    11   ar
    23    11    14    1
    24    14    15    1
    25    14    16    1
    26    14    17    1
    27    11    12   ar
    28    12    13   ar
    29     6     7    1
    30    24    25   ar
    31    25    26    1
    32    32    28   ar
    33    25    21   ar
    34     7     2    1
    35     6     4    1
    36    13     8   ar
@<TRIPOS>MOLECULE
*****
 32 36 0 0 0
SMALL
GASTEIGER

@<TRIPOS>ATOM
      1 C          64.2983   85.5908   15.5481 C.3     1  UNL1        0.0730
      2 N          64.0556   84.8821   14.2486 N.3     1  UNL1       -0.2724
      3 C          64.5196   83.4994   13.8983 C.3     1  UNL1        0.0724
      4 C          64.0570   83.1944   12.5043 C.3     1  UNL1        0.0214
      5 C          63.4719   83.1778   11.1233 C.3     1  UNL1        0.0072
      6 C          63.3071   84.3887   11.9931 C.3     1  UNL1        0.0350
      7 C          63.3063   85.4318   13.0711 C.3     1  UNL1        0.0761
      8 C          62.5234   85.1915   10.9975 C.ar    1  UNL1       -0.0215
      9 C          61.4708   86.1503   11.4694 C.ar    1  UNL1       -0.0043
     10 C          60.6870   86.9532   10.4737 C.ar    1  UNL1        0.0035
     11 C          60.9558   86.7971    9.0063 C.ar    1  UNL1        0.0714
     12 C          62.0085   85.8382    8.5344 C.ar    1  UNL1        0.0035
     13 C          62.7923   85.0354    9.5301 C.ar    1  UNL1       -0.0043
     14 C          60.1721   87.5999    8.0107 C.3     1  UNL1        0.4186
     15 F          59.3883   88.4027    7.0151 F       1  UNL1       -0.1659
     16 F          60.6261   88.8662    8.6743 F       1  UNL1       -0.1659
     17 F          59.7180   86.3336    7.3471 F       1  UNL1       -0.1659
     18 C          63.1383   86.0771   16.3653 C.3     1  UNL1        0.0294
     19 C          63.2255   87.3908   17.0840 C.3     1  UNL1        0.0666
     20 S          62.5254   88.5965   16.5305 S.3     1  UNL1       -0.0756
     21 C          64.6890   91.2575   14.7131 C.ar    1  UNL1        0.2029
     22 N          64.4079   91.9511   16.0130 N.ar    1  UNL1       -0.1250
     23 N          63.5632   91.0388   16.8520 N.ar    1  UNL1       -0.1220
     24 C          63.3222   89.7812   16.0707 C.ar    1  UNL1        0.1933
     25 N          64.0181   89.9164   14.7487 N.ar    1  UNL1       -0.2860
     26 C          64.0392   88.8906   13.6545 C.3     1  UNL1        0.1341
     27 C          67.8610   92.0182   14.8105 C.3     1  UNL1        0.0556
     28 C          66.9569   92.1579   13.6218 C.ar    1  UNL1        0.1001
     29 N          67.3521   92.6718   12.2691 N.ar    1  UNL1       -0.2085
     30 C          66.1384   92.6397   11.3883 C.ar    1  UNL1        0.2849
     31 O          64.9931   92.1061   12.1966 O.2     1  UNL1       -0.4283
     32 C          65.4990   91.8082   13.5770 C.ar    1  UNL1        0.1964
@<TRIPOS>BOND
     1    27    28    1
     2    28    29   ar
     3    29    30   ar
     4    30    31   ar
     5    31    32   ar
     6    32    21    1
     7    21    22   ar
     8    22    23   ar
     9    23    24   ar
    10    24    20    1
    11    20    19    1
    12    19    18    1
    13    18     1    1
    14     1     2    1
    15     2     3    1
    16     3     4    1
    17     4     5    1
    18     5     6    1
    19     6     8    1
    20     8     9   ar
    21     9    10   ar
    22    10    11   ar
    23    11    14    1
    24    14    15    1
    25    14    16    1
    26    14    17    1
    27    11    12   ar
    28    12    13   ar
    29     6     7    1
    30    24    25   ar
    31    25    26    1
    32    32    28   ar
    33    25    21   ar
    34     7     2    1
    35     6     4    1
    36    13     8   ar
@<TRIPOS>MOLECULE
*****
 32 36 0 0 0
SMALL
GASTEIGER

@<TRIPOS>ATOM
      1 C          63.5087   88.6614   12.6419 C.3     1  UNL1        0.0730
      2 N          63.7267   87.4159   13.4490 N.3     1  UNL1       -0.2724
      3 C          64.1707   87.3594   14.8806 C.3     1  UNL1        0.0724
      4 C          64.2573   85.9169   15.2825 C.3     1  UNL1        0.0214
      5 C          64.2508   84.4208   15.3898 C.3     1  UNL1        0.0072
      6 C          63.8668   85.0818   14.0993 C.3     1  UNL1        0.0350
      7 C          63.5388   86.0083   12.9661 C.3     1  UNL1        0.0761
      8 C          63.5986   83.8124   13.3466 C.ar    1  UNL1       -0.0215
      9 C          62.6652   82.7856   13.9161 C.ar    1  UNL1       -0.0043
     10 C          62.3970   81.5161   13.1634 C.ar    1  UNL1        0.0035
     11 C          63.0623   81.2734   11.8411 C.ar    1  UNL1        0.0714
     12 C          63.9959   82.3002   11.2716 C.ar    1  UNL1        0.0035
     13 C          64.2640   83.5696   12.0243 C.ar    1  UNL1       -0.0043
     14 C          62.7942   80.0039   11.0884 C.3     1  UNL1        0.4186
     15 F          62.5261   78.7345   10.3357 F       1  UNL1       -0.1659
     16 F          62.4733   79.3074   12.3775 F       1  UNL1       -0.1659
     17 F          63.1151   80.7005    9.7993 F       1  UNL1       -0.1659
     18 C          62.7732   89.8237   13.2403 C.3     1  UNL1        0.0294
     19 C          63.4983   90.7963   14.1225 C.3     1  UNL1        0.0666
     20 S          64.9780   90.9888   13.9693 S.3     1  UNL1       -0.0756
     21 C          66.0837   94.0607   11.8704 C.ar    1  UNL1        0.2029
     22 N          66.5898   94.4414   13.2301 N.ar    1  UNL1       -0.1250
     23 N          66.2372   93.3371   14.1819 N.ar    1  UNL1       -0.1220
     24 C          65.5132   92.2738   13.4104 C.ar    1  UNL1        0.1933
     25 N          65.4184   92.7211   11.9818 N.ar    1  UNL1       -0.2860
     26 C          64.7717   91.9619   10.8613 C.3     1  UNL1        0.1341
     27 C          68.1045   93.4388    9.3845 C.3     1  UNL1        0.0556
     28 C          67.1480   94.5907    9.4763 C.ar    1  UNL1        0.1001
     29 N          66.9526   95.6590    8.4416 N.ar    1  UNL1       -0.2085
     30 C          65.9029   96.6050    8.9448 C.ar    1  UNL1        0.2849
     31 O          65.4497   96.1215   10.2903 O.2     1  UNL1       -0.4283
     32 C          66.2192   94.8766   10.6189 C.ar    1  UNL1        0.1964
@<TRIPOS>BOND
     1    27    28    1
     2    28    29   ar
     3    29    30   ar
     4    30    31   ar
     5    31    32   ar
     6    32    21    1
     7    21    22   ar
     8    22    23   ar
     9    23    24   ar
    10    24    20    1
    11    20    19    1
    12    19    18    1
    13    18     1    1
    14     1     2    1
    15     2     3    1
    16     3     4    1
    17     4     5    1
    18     5     6    1
    19     6     8    1
    20     8     9   ar
    21     9    10   ar
    22    10    11   ar
    23    11    14    1
    24    14    15    1
    25    14    16    1
    26    14    17    1
    27    11    12   ar
    28    12    13   ar
    29     6     7    1
    30    24    25   ar
    31    25    26    1
    32    32    28   ar
    33    25    21   ar
    34     7     2    1
    35     6     4    1
    36    13     8   ar
@<TRIPOS>MOLECULE
*****
 32 36 0 0 0
SMALL
GASTEIGER

@<TRIPOS>ATOM
      1 C          64.6681   90.0440   14.7629 C.3     1  UNL1        0.0730
      2 N          64.3221   90.5129   13.3808 N.3     1  UNL1       -0.2724
      3 C          64.8583   91.7406   12.7061 C.3     1  UNL1        0.0724
      4 C          64.2466   91.8229   11.3390 C.3     1  UNL1        0.0214
      5 C          63.4898   91.6406   10.0569 C.3     1  UNL1        0.0072
      6 C          63.3323   90.6461   11.1687 C.3     1  UNL1        0.0350
      7 C          63.3789   89.8365   12.4305 C.3     1  UNL1        0.0761
      8 C          62.3563   89.7617   10.4509 C.ar    1  UNL1       -0.0215
      9 C          62.6895   88.3196   10.2073 C.ar    1  UNL1       -0.0043
     10 C          61.7135   87.4352    9.4895 C.ar    1  UNL1        0.0035
     11 C          60.4042   87.9928    9.0153 C.ar    1  UNL1        0.0714
     12 C          60.0710   89.4350    9.2590 C.ar    1  UNL1        0.0035
     13 C          61.0470   90.3194    9.9768 C.ar    1  UNL1       -0.0043
     14 C          59.4282   87.1085    8.2976 C.3     1  UNL1        0.4186
     15 F          58.4521   86.2241    7.5798 F       1  UNL1       -0.1659
     16 F          58.7481   88.3192    7.7306 F       1  UNL1       -0.1659
     17 F          60.1083   85.8977    8.8646 F       1  UNL1       -0.1659
     18 C          63.7698   90.3806   15.9160 C.3     1  UNL1        0.0294
     19 C          62.7632   89.3793   16.3997 C.3     1  UNL1        0.0666
     20 S          63.2196   88.1438   17.1177 S.3     1  UNL1       -0.0756
     21 C          62.8227   84.7118   15.3488 C.ar    1  UNL1        0.2029
     22 N          61.6392   84.7016   16.2702 N.ar    1  UNL1       -0.1250
     23 N          61.6438   85.9859   17.0450 N.ar    1  UNL1       -0.1220
     24 C          62.8302   86.7900   16.6024 C.ar    1  UNL1        0.1933
     25 N          63.5588   86.0025   15.5541 N.ar    1  UNL1       -0.2860
     26 C          64.8048   86.4307   14.8370 C.3     1  UNL1        0.1341
     27 C          62.7145   84.8977   12.0925 C.3     1  UNL1        0.0556
     28 C          63.1536   83.7080   12.8936 C.ar    1  UNL1        0.1001
     29 N          63.6201   82.3949   12.3386 N.ar    1  UNL1       -0.2085
     30 C          63.9581   81.4979   13.4923 C.ar    1  UNL1        0.2849
     31 O          63.7006   82.2566   14.7603 O.2     1  UNL1       -0.4283
     32 C          63.2034   83.6225   14.3903 C.ar    1  UNL1        0.1964
@<TRIPOS>BOND
     1    27    28    1
     2    28    29   ar
     3    29    30   ar
     4    30    31   ar
     5    31    32   ar
     6    32    21    1
     7    21    22   ar
     8    22    23   ar
     9    23    24   ar
    10    24    20    1
    11    20    19    1
    12    19    18    1
    13    18     1    1
    14     1     2    1
    15     2     3    1
    16     3     4    1
    17     4     5    1
    18     5     6    1
    19     6     8    1
    20     8     9   ar
    21     9    10   ar
    22    10    11   ar
    23    11    14    1
    24    14    15    1
    25    14    16    1
    26    14    17    1
    27    11    12   ar
    28    12    13   ar
    29     6     7    1
    30    24    25   ar
    31    25    26    1
    32    32    28   ar
    33    25    21   ar
    34     7     2    1
    35     6     4    1
    36    13     8   ar
@<TRIPOS>MOLECULE
*****
 32 36 0 0 0
SMALL
GASTEIGER

@<TRIPOS>ATOM
      1 C          59.9844   90.2720   10.3687 C.3     1  UNL1        0.0730
      2 N          60.1911   89.0167    9.5740 N.3     1  UNL1       -0.2724
      3 C          59.6198   88.7278    8.2175 C.3     1  UNL1        0.0724
      4 C          60.0811   87.3625    7.8014 C.3     1  UNL1        0.0214
      5 C          60.6884   85.9980    7.6628 C.3     1  UNL1        0.0072
      6 C          60.9376   86.8076    8.9007 C.3     1  UNL1        0.0350
      7 C          61.0056   87.8299    9.9962 C.3     1  UNL1        0.0761
      8 C          61.8041   85.7901    9.5817 C.ar    1  UNL1       -0.0215
      9 C          62.7939   84.9937    8.7842 C.ar    1  UNL1       -0.0043
     10 C          63.6605   83.9762    9.4652 C.ar    1  UNL1        0.0035
     11 C          63.5372   83.7550   10.9437 C.ar    1  UNL1        0.0714
     12 C          62.5473   84.5515   11.7412 C.ar    1  UNL1        0.0035
     13 C          61.6808   85.5690   11.0602 C.ar    1  UNL1       -0.0043
     14 C          64.4038   82.7375   11.6247 C.3     1  UNL1        0.4186
     15 F          65.2703   81.7200   12.3057 F       1  UNL1       -0.1659
     16 F          64.2396   81.8142   10.4540 F       1  UNL1       -0.1659
     17 F          64.5679   83.6609   12.7953 F       1  UNL1       -0.1659
     18 C          61.0999   90.8204   11.2083 C.3     1  UNL1        0.0294
     19 C          61.5587   90.0744   12.4260 C.3     1  UNL1        0.0666
     20 S          63.0199   89.8084   12.6363 S.3     1  UNL1       -0.0756
     21 C          65.4188   92.8152   12.1168 C.ar    1  UNL1        0.2029
     22 N          65.5243   92.6130   13.5994 N.ar    1  UNL1       -0.1250
     23 N          64.6386   91.4621   13.9744 N.ar    1  UNL1       -0.1220
     24 C          63.9856   90.9529   12.7237 C.ar    1  UNL1        0.1933
     25 N          64.4678   91.7892   11.5756 N.ar    1  UNL1       -0.2860
     26 C          64.0690   91.6278   10.1386 C.3     1  UNL1        0.1341
     27 C          67.8016   92.2715    9.9543 C.3     1  UNL1        0.0556
     28 C          67.2332   93.6101   10.3221 C.ar    1  UNL1        0.1001
     29 N          67.6604   94.9338    9.7604 N.ar    1  UNL1       -0.2085
     30 C          66.8291   96.0017   10.4073 C.ar    1  UNL1        0.2849
     31 O          65.8883   95.3381   11.3687 O.2     1  UNL1       -0.4283
     32 C          66.1380   93.8600   11.3160 C.ar    1  UNL1        0.1964
@<TRIPOS>BOND
     1    27    28    1
     2    28    29   ar
     3    29    30   ar
     4    30    31   ar
     5    31    32   ar
     6    32    21    1
     7    21    22   ar
     8    22    23   ar
     9    23    24   ar
    10    24    20    1
    11    20    19    1
    12    19    18    1
    13    18     1    1
    14     1     2    1
    15     2     3    1
    16     3     4    1
    17     4     5    1
    18     5     6    1
    19     6     8    1
    20     8     9   ar
    21     9    10   ar
    22    10    11   ar
    23    11    14    1
    24    14    15    1
    25    14    16    1
    26    14    17    1
    27    11    12   ar
    28    12    13   ar
    29     6     7    1
    30    24    25   ar
    31    25    26    1
    32    32    28   ar
    33    25    21   ar
    34     7     2    1
    35     6     4    1
    36    13     8   ar
@<TRIPOS>MOLECULE
*****
 32 36 0 0 0
SMALL
GASTEIGER

@<TRIPOS>ATOM
      1 C          62.4072   89.9513   12.1505 C.3     1  UNL1        0.0730
      2 N          62.3242   88.7558   11.2483 N.3     1  UNL1       -0.2724
      3 C          62.0142   88.7786    9.7809 C.3     1  UNL1        0.0724
      4 C          62.0351   87.3646    9.2807 C.3     1  UNL1        0.0214
      5 C          62.1248   85.8810    9.0785 C.3     1  UNL1        0.0072
      6 C          62.3581   86.4679   10.4390 C.3     1  UNL1        0.0350
      7 C          62.5368   87.3278   11.6550 C.3     1  UNL1        0.0761
      8 C          62.6194   85.1626   11.1302 C.ar    1  UNL1       -0.0215
      9 C          62.3414   85.0221   12.5975 C.ar    1  UNL1       -0.0043
     10 C          62.6027   83.7167   13.2888 C.ar    1  UNL1        0.0035
     11 C          63.1420   82.5518   12.5127 C.ar    1  UNL1        0.0714
     12 C          63.4200   82.6924   11.0453 C.ar    1  UNL1        0.0035
     13 C          63.1587   83.9977   10.3541 C.ar    1  UNL1       -0.0043
     14 C          63.4033   81.2465   13.2039 C.3     1  UNL1        0.4186
     15 F          63.6647   79.9411   13.8951 F       1  UNL1       -0.1659
     16 F          63.9414   81.9843   14.3939 F       1  UNL1       -0.1659
     17 F          62.8653   80.5087   12.0139 F       1  UNL1       -0.1659
     18 C          62.9425   89.8036   13.5439 C.3     1  UNL1        0.0294
     19 C          63.7157   90.9245   14.1731 C.3     1  UNL1        0.0666
     20 S          65.1614   91.1253   13.8268 S.3     1  UNL1       -0.0756
     21 C          66.1113   94.2756   11.7682 C.ar    1  UNL1        0.2029
     22 N          66.5742   94.6742   13.1382 N.ar    1  UNL1       -0.1250
     23 N          66.2747   93.5426   14.0760 N.ar    1  UNL1       -0.1220
     24 C          65.6267   92.4446   13.2857 C.ar    1  UNL1        0.1933
     25 N          65.5257   92.8977   11.8594 N.ar    1  UNL1       -0.2860
     26 C          64.9417   92.1109   10.7236 C.3     1  UNL1        0.1341
     27 C          68.1014   93.7135    9.2436 C.3     1  UNL1        0.0556
     28 C          67.1304   94.8504    9.3648 C.ar    1  UNL1        0.1001
     29 N          66.9037   95.9285    8.3468 N.ar    1  UNL1       -0.2085
     30 C          65.8489   96.8532    8.8781 C.ar    1  UNL1        0.2849
     31 O          65.4237   96.3466   10.2243 O.2     1  UNL1       -0.4283
     32 C          66.2157   95.1088   10.5251 C.ar    1  UNL1        0.1964
@<TRIPOS>BOND
     1    27    28    1
     2    28    29   ar
     3    29    30   ar
     4    30    31   ar
     5    31    32   ar
     6    32    21    1
     7    21    22   ar
     8    22    23   ar
     9    23    24   ar
    10    24    20    1
    11    20    19    1
    12    19    18    1
    13    18     1    1
    14     1     2    1
    15     2     3    1
    16     3     4    1
    17     4     5    1
    18     5     6    1
    19     6     8    1
    20     8     9   ar
    21     9    10   ar
    22    10    11   ar
    23    11    14    1
    24    14    15    1
    25    14    16    1
    26    14    17    1
    27    11    12   ar
    28    12    13   ar
    29     6     7    1
    30    24    25   ar
    31    25    26    1
    32    32    28   ar
    33    25    21   ar
    34     7     2    1
    35     6     4    1
    36    13     8   ar
@<TRIPOS>MOLECULE
*****
 32 36 0 0 0
SMALL
GASTEIGER

@<TRIPOS>ATOM
      1 C          64.2512   84.8657   15.2616 C.3     1  UNL1        0.0730
      2 N          63.9262   86.2912   15.5969 N.3     1  UNL1       -0.2724
      3 C          63.2715   86.7732   16.8575 C.3     1  UNL1        0.0724
      4 C          63.1395   88.2648   16.7702 C.3     1  UNL1        0.0214
      5 C          63.1446   89.7192   16.4033 C.3     1  UNL1        0.0072
      6 C          63.7126   88.7047   15.4556 C.3     1  UNL1        0.0350
      7 C          64.1988   87.4849   14.7305 C.3     1  UNL1        0.0761
      8 C          64.1040   89.6863   14.3911 C.ar    1  UNL1       -0.0215
      9 C          63.3571   89.7199   13.0907 C.ar    1  UNL1       -0.0043
     10 C          63.7484   90.7016   12.0262 C.ar    1  UNL1        0.0035
     11 C          64.8867   91.6496   12.2620 C.ar    1  UNL1        0.0714
     12 C          65.6336   91.6160   13.5625 C.ar    1  UNL1        0.0035
     13 C          65.2423   90.6343   14.6270 C.ar    1  UNL1       -0.0043
     14 C          65.2781   92.6313   11.1975 C.3     1  UNL1        0.4186
     15 F          65.6695   93.6129   10.1330 F       1  UNL1       -0.1659
     16 F          64.0785   92.2334   10.3896 F       1  UNL1       -0.1659
     17 F          66.4776   93.0291   12.0054 F       1  UNL1       -0.1659
     18 C          64.5042   84.4692   13.8373 C.3     1  UNL1        0.0294
     19 C          63.5937   83.4893   13.1585 C.3     1  UNL1        0.0666
     20 S          63.7942   83.1590   11.7091 S.3     1  UNL1       -0.0756
     21 C          62.2817   86.0008    9.5409 C.ar    1  UNL1        0.2029
     22 N          63.0258   85.2109    8.5053 N.ar    1  UNL1       -0.1250
     23 N          63.6829   84.0503    9.1915 N.ar    1  UNL1       -0.1220
     24 C          63.3450   84.1228   10.6511 C.ar    1  UNL1        0.1933
     25 N          62.4790   85.3283   10.8670 N.ar    1  UNL1       -0.2860
     26 C          61.9102   85.7817   12.1789 C.3     1  UNL1        0.1341
     27 C          59.6535   86.2405    7.6213 C.3     1  UNL1        0.0556
     28 C          60.2729   87.3550    8.4114 C.ar    1  UNL1        0.1001
     29 N          59.7930   88.7754    8.4577 N.ar    1  UNL1       -0.2085
     30 C          60.7044   89.5431    9.3687 C.ar    1  UNL1        0.2849
     31 O          61.7476   88.5973    9.8853 O.2     1  UNL1       -0.4283
     32 C          61.4809   87.2449    9.2936 C.ar    1  UNL1        0.1964
@<TRIPOS>BOND
     1    27    28    1
     2    28    29   ar
     3    29    30   ar
     4    30    31   ar
     5    31    32   ar
     6    32    21    1
     7    21    22   ar
     8    22    23   ar
     9    23    24   ar
    10    24    20    1
    11    20    19    1
    12    19    18    1
    13    18     1    1
    14     1     2    1
    15     2     3    1
    16     3     4    1
    17     4     5    1
    18     5     6    1
    19     6     8    1
    20     8     9   ar
    21     9    10   ar
    22    10    11   ar
    23    11    14    1
    24    14    15    1
    25    14    16    1
    26    14    17    1
    27    11    12   ar
    28    12    13   ar
    29     6     7    1
    30    24    25   ar
    31    25    26    1
    32    32    28   ar
    33    25    21   ar
    34     7     2    1
    35     6     4    1
    36    13     8   ar
