@<TRIPOS>MOLECULE
*****
 26 28 0 0 0
SMALL
GASTEIGER

@<TRIPOS>ATOM
      1 C          64.8550   90.8128   13.5452 C.ar    1  UNL1        0.0022
      2 C          66.1627   91.4934   13.8220 C.ar    1  UNL1        0.0001
      3 C          66.7044   92.5004   12.8511 C.ar    1  UNL1        0.0000
      4 C          65.9384   92.8267   11.6034 C.ar    1  UNL1        0.0000
      5 C          64.6307   92.1461   11.3266 C.ar    1  UNL1        0.0000
      6 C          64.0890   91.1392   12.2975 C.ar    1  UNL1        0.0001
      7 C          66.4801   93.8336   10.6325 C.ar    1  UNL1        0.0002
      8 C          66.1235   95.2833   10.7783 C.ar    1  UNL1        0.0031
      9 C          66.6652   96.2902    9.8074 C.ar    1  UNL1        0.0366
     10 C          67.5635   95.8475    8.6907 C.ar    1  UNL1        0.1337
     11 O          68.1052   96.8545    7.7198 O.3     1  UNL1       -0.5055
     12 C          67.9202   94.3979    8.5450 C.ar    1  UNL1        0.0366
     13 C          67.3785   93.3909    9.5159 C.ar    1  UNL1        0.0031
     14 H          67.8824   97.7600    7.8109 H       1  UNL1        0.2922
     15 C          63.2299   87.7920   16.4579 C.ar    1  UNL1       -0.0150
     16 C          63.8366   87.3355   15.1643 C.ar    1  UNL1       -0.0038
     17 C          64.3783   88.3425   14.1934 C.ar    1  UNL1        0.0019
     18 C          64.3133   89.8059   14.5161 C.ar    1  UNL1        0.0275
     19 C          63.7066   90.2623   15.8097 C.ar    1  UNL1        0.1398
     20 F          63.6415   91.7258   16.1325 F       1  UNL1       -0.2042
     21 C          63.1649   89.2554   16.7806 C.ar    1  UNL1        0.0257
     22 C          62.8736   86.9896   18.9031 C.3     1  UNL1        0.0106
     23 C          62.6882   86.7851   17.4288 C.3     1  UNL1        0.0588
     24 C          61.9610   85.5736   16.9253 C.2     1  UNL1        0.0540
     25 O          62.6230   84.2283   16.9716 O.co2   1  UNL1       -0.5488
     26 O          60.5718   85.7073   16.3755 O.co2   1  UNL1       -0.5488
@<TRIPOS>UNITY_ATOM_ATTR
25 1
charge -1
@<TRIPOS>BOND
     1    22    23    1
     2    23    24    1
     3    24    25   ar
     4    24    26   ar
     5    23    15    1
     6    15    16   ar
     7    16    17   ar
     8    17    18   ar
     9    18     1    1
    10     1     2   ar
    11     2     3   ar
    12     3     4   ar
    13     4     7    1
    14     7     8   ar
    15     8     9   ar
    16     9    10   ar
    17    10    11    1
    18    10    12   ar
    19    12    13   ar
    20     4     5   ar
    21     5     6   ar
    22    18    19   ar
    23    19    20    1
    24    19    21   ar
    25    21    15   ar
    26     6     1   ar
    27    13     7   ar
    28    11    14    1
@<TRIPOS>MOLECULE
*****
 26 28 0 0 0
SMALL
GASTEIGER

@<TRIPOS>ATOM
      1 C          63.6592   85.4794   13.0233 C.ar    1  UNL1        0.0022
      2 C          62.6799   85.1793   11.9275 C.ar    1  UNL1        0.0001
      3 C          62.4721   83.7646   11.4740 C.ar    1  UNL1        0.0000
      4 C          63.2437   82.6502   12.1163 C.ar    1  UNL1        0.0000
      5 C          64.2230   82.9503   13.2121 C.ar    1  UNL1        0.0000
      6 C          64.4308   84.3649   13.6655 C.ar    1  UNL1        0.0001
      7 C          63.0359   81.2355   11.6628 C.ar    1  UNL1        0.0002
      8 C          62.6669   80.1755   12.6578 C.ar    1  UNL1        0.0031
      9 C          62.4592   78.7608   12.2043 C.ar    1  UNL1        0.0366
     10 C          62.6204   78.4063   10.7558 C.ar    1  UNL1        0.1337
     11 O          62.4126   76.9916   10.3023 O.3     1  UNL1       -0.5055
     12 C          62.9894   79.4663    9.7608 C.ar    1  UNL1        0.0366
     13 C          63.1971   80.8809   10.2143 C.ar    1  UNL1        0.0031
     14 H          62.1821   76.3294   10.9239 H       1  UNL1        0.2922
     15 C          64.2825   89.7233   14.3837 C.ar    1  UNL1       -0.0150
     16 C          64.7467   88.5845   15.2426 C.ar    1  UNL1       -0.0038
     17 C          64.5389   87.1699   14.7891 C.ar    1  UNL1        0.0019
     18 C          63.8670   86.8940   13.4768 C.ar    1  UNL1        0.0275
     19 C          63.4028   88.0328   12.6179 C.ar    1  UNL1        0.1398
     20 F          62.7308   87.7570   11.3055 F       1  UNL1       -0.2042
     21 C          63.6105   89.4474   13.0714 C.ar    1  UNL1        0.0257
     22 C          65.1477   92.1295   13.9238 C.3     1  UNL1        0.0106
     23 C          64.4902   91.1379   14.8372 C.3     1  UNL1        0.0588
     24 C          64.0405   91.5610   16.2042 C.2     1  UNL1        0.0540
     25 O          62.9599   90.7954   16.9087 O.co2   1  UNL1       -0.5488
     26 O          64.6713   92.7497   16.8668 O.co2   1  UNL1       -0.5488
@<TRIPOS>UNITY_ATOM_ATTR
25 1
charge -1
@<TRIPOS>BOND
     1    22    23    1
     2    23    24    1
     3    24    25   ar
     4    24    26   ar
     5    23    15    1
     6    15    16   ar
     7    16    17   ar
     8    17    18   ar
     9    18     1    1
    10     1     2   ar
    11     2     3   ar
    12     3     4   ar
    13     4     7    1
    14     7     8   ar
    15     8     9   ar
    16     9    10   ar
    17    10    11    1
    18    10    12   ar
    19    12    13   ar
    20     4     5   ar
    21     5     6   ar
    22    18    19   ar
    23    19    20    1
    24    19    21   ar
    25    21    15   ar
    26     6     1   ar
    27    13     7   ar
    28    11    14    1
@<TRIPOS>MOLECULE
*****
 26 28 0 0 0
SMALL
GASTEIGER

@<TRIPOS>ATOM
      1 C          63.6210   85.3947   12.9513 C.ar    1  UNL1        0.0022
      2 C          64.4398   84.2968   13.5630 C.ar    1  UNL1        0.0001
      3 C          64.2418   82.8776   13.1198 C.ar    1  UNL1        0.0000
      4 C          63.2249   82.5562   12.0650 C.ar    1  UNL1        0.0000
      5 C          62.4061   83.6541   11.4533 C.ar    1  UNL1        0.0000
      6 C          62.6042   85.0733   11.8965 C.ar    1  UNL1        0.0001
      7 C          63.0269   81.1369   11.6218 C.ar    1  UNL1        0.0002
      8 C          63.1678   80.7771   10.1724 C.ar    1  UNL1        0.0031
      9 C          62.9698   79.3578    9.7292 C.ar    1  UNL1        0.0366
     10 C          62.6308   78.2983   10.7354 C.ar    1  UNL1        0.1337
     11 O          62.4328   76.8790   10.2922 O.3     1  UNL1       -0.5055
     12 C          62.4899   78.6581   12.1848 C.ar    1  UNL1        0.0366
     13 C          62.6879   80.0773   12.6279 C.ar    1  UNL1        0.0031
     14 H          62.5208   76.6543    9.3868 H       1  UNL1        0.2922
     15 C          64.2151   89.6526   14.2809 C.ar    1  UNL1       -0.0150
     16 C          64.6750   88.5231   15.1541 C.ar    1  UNL1       -0.0038
     17 C          64.4769   87.1038   14.7110 C.ar    1  UNL1        0.0019
     18 C          63.8190   86.8140   13.3945 C.ar    1  UNL1        0.0275
     19 C          63.3592   87.9435   12.5212 C.ar    1  UNL1        0.1398
     20 F          62.7012   87.6538   11.2046 F       1  UNL1       -0.2042
     21 C          63.5572   89.3628   12.9644 C.ar    1  UNL1        0.0257
     22 C          65.0267   92.0710   13.7885 C.3     1  UNL1        0.0106
     23 C          64.4131   91.0719   14.7240 C.3     1  UNL1        0.0588
     24 C          63.9977   91.4920   16.1027 C.2     1  UNL1        0.0540
     25 O          62.9311   90.7281   16.8301 O.co2   1  UNL1       -0.5488
     26 O          64.6486   92.6760   16.7541 O.co2   1  UNL1       -0.5488
@<TRIPOS>UNITY_ATOM_ATTR
25 1
charge -1
@<TRIPOS>BOND
     1    22    23    1
     2    23    24    1
     3    24    25   ar
     4    24    26   ar
     5    23    15    1
     6    15    16   ar
     7    16    17   ar
     8    17    18   ar
     9    18     1    1
    10     1     2   ar
    11     2     3   ar
    12     3     4   ar
    13     4     7    1
    14     7     8   ar
    15     8     9   ar
    16     9    10   ar
    17    10    11    1
    18    10    12   ar
    19    12    13   ar
    20     4     5   ar
    21     5     6   ar
    22    18    19   ar
    23    19    20    1
    24    19    21   ar
    25    21    15   ar
    26     6     1   ar
    27    13     7   ar
    28    11    14    1
@<TRIPOS>MOLECULE
*****
 26 28 0 0 0
SMALL
GASTEIGER

@<TRIPOS>ATOM
      1 C          63.5788   85.3307   12.8874 C.ar    1  UNL1        0.0022
      2 C          62.6045   84.9978   11.7966 C.ar    1  UNL1        0.0001
      3 C          62.4129   83.5721   11.3715 C.ar    1  UNL1        0.0000
      4 C          63.1955   82.4793   12.0373 C.ar    1  UNL1        0.0000
      5 C          64.1698   82.8122   13.1281 C.ar    1  UNL1        0.0000
      6 C          64.3614   84.2379   13.5531 C.ar    1  UNL1        0.0001
      7 C          63.0038   81.0536   11.6122 C.ar    1  UNL1        0.0002
      8 C          62.6656   80.0062   12.6313 C.ar    1  UNL1        0.0031
      9 C          62.4739   78.5805   12.2062 C.ar    1  UNL1        0.0366
     10 C          62.6205   78.2022   10.7622 C.ar    1  UNL1        0.1337
     11 O          62.4288   76.7766   10.3371 O.3     1  UNL1       -0.5055
     12 C          62.9587   79.2497    9.7431 C.ar    1  UNL1        0.0366
     13 C          63.1504   80.6754   10.1682 C.ar    1  UNL1        0.0031
     14 H          62.2175   76.1223   10.9737 H       1  UNL1        0.2922
     15 C          64.1538   89.6078   14.1625 C.ar    1  UNL1       -0.0150
     16 C          63.5193   89.2986   12.8390 C.ar    1  UNL1       -0.0038
     17 C          63.3277   87.8729   12.4139 C.ar    1  UNL1        0.0019
     18 C          63.7705   86.7564   13.3124 C.ar    1  UNL1        0.0275
     19 C          64.4049   87.0656   14.6360 C.ar    1  UNL1        0.1398
     20 F          64.8478   85.9491   15.5345 F       1  UNL1       -0.2042
     21 C          64.5966   88.4913   15.0610 C.ar    1  UNL1        0.0257
     22 C          64.8261   92.0530   13.5979 C.3     1  UNL1        0.0106
     23 C          64.3454   91.0335   14.5876 C.3     1  UNL1        0.0588
     24 C          64.0565   91.4397   16.0023 C.2     1  UNL1        0.0540
     25 O          64.8109   92.5768   16.6251 O.co2   1  UNL1       -0.5488
     26 O          63.0131   90.7088   16.7942 O.co2   1  UNL1       -0.5488
@<TRIPOS>UNITY_ATOM_ATTR
25 1
charge -1
@<TRIPOS>BOND
     1    22    23    1
     2    23    24    1
     3    24    25   ar
     4    24    26   ar
     5    23    15    1
     6    15    16   ar
     7    16    17   ar
     8    17    18   ar
     9    18     1    1
    10     1     2   ar
    11     2     3   ar
    12     3     4   ar
    13     4     7    1
    14     7     8   ar
    15     8     9   ar
    16     9    10   ar
    17    10    11    1
    18    10    12   ar
    19    12    13   ar
    20     4     5   ar
    21     5     6   ar
    22    18    19   ar
    23    19    20    1
    24    19    21   ar
    25    21    15   ar
    26     6     1   ar
    27    13     7   ar
    28    11    14    1
@<TRIPOS>MOLECULE
*****
 26 28 0 0 0
SMALL
GASTEIGER

@<TRIPOS>ATOM
      1 C          58.1289   94.2515   -0.7582 C.ar    1  UNL1        0.0022
      2 C          57.1373   93.2094   -1.1830 C.ar    1  UNL1        0.0001
      3 C          55.8513   93.6201   -1.8369 C.ar    1  UNL1        0.0000
      4 C          55.5569   95.0729   -2.0660 C.ar    1  UNL1        0.0000
      5 C          56.5486   96.1151   -1.6412 C.ar    1  UNL1        0.0000
      6 C          57.8346   95.7044   -0.9873 C.ar    1  UNL1        0.0001
      7 C          54.2710   95.4836   -2.7199 C.ar    1  UNL1        0.0002
      8 C          53.0167   95.5934   -1.9047 C.ar    1  UNL1        0.0031
      9 C          51.7307   96.0041   -2.5586 C.ar    1  UNL1        0.0366
     10 C          51.6990   96.3050   -4.0277 C.ar    1  UNL1        0.1337
     11 O          50.4130   96.7157   -4.6816 O.3     1  UNL1       -0.5055
     12 C          52.9533   96.1952   -4.8429 C.ar    1  UNL1        0.0366
     13 C          54.2393   95.7845   -4.1891 C.ar    1  UNL1        0.0031
     14 H          49.6295   96.7843   -4.1723 H       1  UNL1        0.2922
     15 C          61.9869   93.0195    1.2034 C.ar    1  UNL1       -0.0150
     16 C          60.8017   93.3883    2.0455 C.ar    1  UNL1       -0.0038
     17 C          59.5157   93.7990    1.3916 C.ar    1  UNL1        0.0019
     18 C          59.4149   93.8408   -0.1044 C.ar    1  UNL1        0.0275
     19 C          60.6001   93.4720   -0.9465 C.ar    1  UNL1        0.1398
     20 F          60.4994   93.5138   -2.4425 F       1  UNL1       -0.2042
     21 C          61.8861   93.0613   -0.2926 C.ar    1  UNL1        0.0257
     22 C          63.2875   91.4704    2.8339 C.3     1  UNL1        0.0106
     23 C          63.2729   92.6088    1.8573 C.3     1  UNL1        0.0588
     24 C          64.5442   93.3365    1.5346 C.2     1  UNL1        0.0540
     25 O          65.5510   92.7147    0.6127 O.co2   1  UNL1       -0.5488
     26 O          64.8088   94.6859    2.1338 O.co2   1  UNL1       -0.5488
@<TRIPOS>UNITY_ATOM_ATTR
25 1
charge -1
@<TRIPOS>BOND
     1    22    23    1
     2    23    24    1
     3    24    25   ar
     4    24    26   ar
     5    23    15    1
     6    15    16   ar
     7    16    17   ar
     8    17    18   ar
     9    18     1    1
    10     1     2   ar
    11     2     3   ar
    12     3     4   ar
    13     4     7    1
    14     7     8   ar
    15     8     9   ar
    16     9    10   ar
    17    10    11    1
    18    10    12   ar
    19    12    13   ar
    20     4     5   ar
    21     5     6   ar
    22    18    19   ar
    23    19    20    1
    24    19    21   ar
    25    21    15   ar
    26     6     1   ar
    27    13     7   ar
    28    11    14    1
@<TRIPOS>MOLECULE
*****
 26 28 0 0 0
SMALL
GASTEIGER

@<TRIPOS>ATOM
      1 C          57.9322   94.2250   -0.7296 C.ar    1  UNL1        0.0022
      2 C          56.9116   93.2073   -1.1450 C.ar    1  UNL1        0.0001
      3 C          55.6501   93.6456   -1.8280 C.ar    1  UNL1        0.0000
      4 C          55.4091   95.1017   -2.0955 C.ar    1  UNL1        0.0000
      5 C          56.4297   96.1195   -1.6801 C.ar    1  UNL1        0.0000
      6 C          57.6912   95.6811   -0.9972 C.ar    1  UNL1        0.0001
      7 C          54.1476   95.5401   -2.7785 C.ar    1  UNL1        0.0002
      8 C          54.1528   95.8281   -4.2505 C.ar    1  UNL1        0.0031
      9 C          52.8913   96.2665   -4.9335 C.ar    1  UNL1        0.0366
     10 C          51.6246   96.4168   -4.1444 C.ar    1  UNL1        0.1337
     11 O          50.3631   96.8552   -4.8273 O.3     1  UNL1       -0.5055
     12 C          51.6194   96.1288   -2.6723 C.ar    1  UNL1        0.0366
     13 C          52.8809   95.6904   -1.9894 C.ar    1  UNL1        0.0031
     14 H          50.3663   97.0351   -5.7469 H       1  UNL1        0.2922
     15 C          61.7167   92.9100    1.3192 C.ar    1  UNL1       -0.0150
     16 C          61.0437   92.0024    0.3326 C.ar    1  UNL1       -0.0038
     17 C          59.7822   92.4408   -0.3503 C.ar    1  UNL1        0.0019
     18 C          59.1937   93.7867   -0.0467 C.ar    1  UNL1        0.0275
     19 C          59.8667   94.6942    0.9399 C.ar    1  UNL1        0.1398
     20 F          59.2782   96.0402    1.2436 F       1  UNL1       -0.2042
     21 C          61.1283   94.2559    1.6228 C.ar    1  UNL1        0.0257
     22 C          64.3078   92.9557    1.5043 C.3     1  UNL1        0.0106
     23 C          62.9783   92.4716    2.0021 C.3     1  UNL1        0.0588
     24 C          62.9102   91.5492    3.1830 C.2     1  UNL1        0.0540
     25 O          64.0215   90.5744    3.4382 O.co2   1  UNL1       -0.5488
     26 O          61.7311   91.6014    4.1086 O.co2   1  UNL1       -0.5488
@<TRIPOS>UNITY_ATOM_ATTR
25 1
charge -1
@<TRIPOS>BOND
     1    22    23    1
     2    23    24    1
     3    24    25   ar
     4    24    26   ar
     5    23    15    1
     6    15    16   ar
     7    16    17   ar
     8    17    18   ar
     9    18     1    1
    10     1     2   ar
    11     2     3   ar
    12     3     4   ar
    13     4     7    1
    14     7     8   ar
    15     8     9   ar
    16     9    10   ar
    17    10    11    1
    18    10    12   ar
    19    12    13   ar
    20     4     5   ar
    21     5     6   ar
    22    18    19   ar
    23    19    20    1
    24    19    21   ar
    25    21    15   ar
    26     6     1   ar
    27    13     7   ar
    28    11    14    1
@<TRIPOS>MOLECULE
*****
 26 28 0 0 0
SMALL
GASTEIGER

@<TRIPOS>ATOM
      1 C          63.5337   86.4989   13.7262 C.ar    1  UNL1        0.0022
      2 C          64.4266   86.9626   14.8387 C.ar    1  UNL1        0.0001
      3 C          64.9317   88.3749   14.8559 C.ar    1  UNL1        0.0000
      4 C          64.5439   89.3235   13.7606 C.ar    1  UNL1        0.0000
      5 C          63.6510   88.8598   12.6481 C.ar    1  UNL1        0.0000
      6 C          63.1459   87.4475   12.6309 C.ar    1  UNL1        0.0001
      7 C          65.0490   90.7358   13.7778 C.ar    1  UNL1        0.0002
      8 C          64.9950   91.5669   12.5302 C.ar    1  UNL1        0.0031
      9 C          65.5001   92.9792   12.5474 C.ar    1  UNL1        0.0366
     10 C          66.0592   93.5604   13.8121 C.ar    1  UNL1        0.1337
     11 O          66.5643   94.9727   13.8293 O.3     1  UNL1       -0.5055
     12 C          66.1132   92.7294   15.0596 C.ar    1  UNL1        0.0366
     13 C          65.6081   91.3171   15.0425 C.ar    1  UNL1        0.0031
     14 H          66.5305   95.4919   13.0500 H       1  UNL1        0.2922
     15 C          62.0185   82.2620   13.6747 C.ar    1  UNL1       -0.0150
     16 C          62.4537   82.9185   12.3981 C.ar    1  UNL1       -0.0038
     17 C          62.9587   84.3308   12.4153 C.ar    1  UNL1        0.0019
     18 C          63.0287   85.0866   13.7090 C.ar    1  UNL1        0.0275
     19 C          62.5935   84.4302   14.9856 C.ar    1  UNL1        0.1398
     20 F          62.6634   85.1860   16.2794 F       1  UNL1       -0.2042
     21 C          62.0884   83.0179   14.9684 C.ar    1  UNL1        0.0257
     22 C          60.1364   80.5394   14.1650 C.3     1  UNL1        0.0106
     23 C          61.5134   80.8497   13.6575 C.3     1  UNL1        0.0588
     24 C          62.3853   79.7477   13.1328 C.2     1  UNL1        0.0540
     25 O          62.7906   79.7351   11.6886 O.co2   1  UNL1       -0.5488
     26 O          62.8520   78.6583   14.0523 O.co2   1  UNL1       -0.5488
@<TRIPOS>UNITY_ATOM_ATTR
25 1
charge -1
@<TRIPOS>BOND
     1    22    23    1
     2    23    24    1
     3    24    25   ar
     4    24    26   ar
     5    23    15    1
     6    15    16   ar
     7    16    17   ar
     8    17    18   ar
     9    18     1    1
    10     1     2   ar
    11     2     3   ar
    12     3     4   ar
    13     4     7    1
    14     7     8   ar
    15     8     9   ar
    16     9    10   ar
    17    10    11    1
    18    10    12   ar
    19    12    13   ar
    20     4     5   ar
    21     5     6   ar
    22    18    19   ar
    23    19    20    1
    24    19    21   ar
    25    21    15   ar
    26     6     1   ar
    27    13     7   ar
    28    11    14    1
@<TRIPOS>MOLECULE
*****
 26 28 0 0 0
SMALL
GASTEIGER

@<TRIPOS>ATOM
      1 C          71.8560   76.2815   14.0188 C.ar    1  UNL1        0.0022
      2 C          72.3588   77.6321   14.4347 C.ar    1  UNL1        0.0001
      3 C          72.5523   78.7091   13.4087 C.ar    1  UNL1        0.0000
      4 C          72.2430   78.4354   11.9667 C.ar    1  UNL1        0.0000
      5 C          71.7402   77.0849   11.5507 C.ar    1  UNL1        0.0000
      6 C          71.5467   76.0079   12.5767 C.ar    1  UNL1        0.0001
      7 C          72.4366   79.5124   10.9407 C.ar    1  UNL1        0.0002
      8 C          72.7040   79.1467    9.5108 C.ar    1  UNL1        0.0031
      9 C          72.8975   80.2236    8.4847 C.ar    1  UNL1        0.0366
     10 C          72.8236   81.6663    8.8886 C.ar    1  UNL1        0.1337
     11 O          73.0171   82.7433    7.8626 O.3     1  UNL1       -0.5055
     12 C          72.5562   82.0320   10.3185 C.ar    1  UNL1        0.0366
     13 C          72.3627   80.9551   11.3446 C.ar    1  UNL1        0.0031
     14 H          73.1842   82.5148    6.9694 H       1  UNL1        0.2922
     15 C          71.2754   73.0507   17.0968 C.ar    1  UNL1       -0.0150
     16 C          72.6187   73.2457   16.4584 C.ar    1  UNL1       -0.0038
     17 C          72.8122   74.3226   15.4324 C.ar    1  UNL1        0.0019
     18 C          71.6625   75.2046   15.0448 C.ar    1  UNL1        0.0275
     19 C          70.3192   75.0096   15.6832 C.ar    1  UNL1        0.1398
     20 F          69.1694   75.8916   15.2956 F       1  UNL1       -0.2042
     21 C          70.1257   73.9326   16.7092 C.ar    1  UNL1        0.0257
     22 C          71.1059   72.3160   19.5831 C.3     1  UNL1        0.0106
     23 C          71.0819   71.9737   18.1228 C.3     1  UNL1        0.0588
     24 C          70.8644   70.5545   17.6887 C.2     1  UNL1        0.0540
     25 O          70.2514   69.5660   18.6358 O.co2   1  UNL1       -0.5488
     26 O          71.2599   70.1238   16.3073 O.co2   1  UNL1       -0.5488
@<TRIPOS>UNITY_ATOM_ATTR
25 1
charge -1
@<TRIPOS>BOND
     1    22    23    1
     2    23    24    1
     3    24    25   ar
     4    24    26   ar
     5    23    15    1
     6    15    16   ar
     7    16    17   ar
     8    17    18   ar
     9    18     1    1
    10     1     2   ar
    11     2     3   ar
    12     3     4   ar
    13     4     7    1
    14     7     8   ar
    15     8     9   ar
    16     9    10   ar
    17    10    11    1
    18    10    12   ar
    19    12    13   ar
    20     4     5   ar
    21     5     6   ar
    22    18    19   ar
    23    19    20    1
    24    19    21   ar
    25    21    15   ar
    26     6     1   ar
    27    13     7   ar
    28    11    14    1
@<TRIPOS>MOLECULE
*****
 26 28 0 0 0
SMALL
GASTEIGER

@<TRIPOS>ATOM
      1 C          45.3196   74.9574   17.1226 C.ar    1  UNL1        0.0022
      2 C          45.0644   75.0997   15.6514 C.ar    1  UNL1        0.0001
      3 C          45.0005   73.8805   14.7799 C.ar    1  UNL1        0.0000
      4 C          45.1918   72.5190   15.3796 C.ar    1  UNL1        0.0000
      5 C          45.4470   72.3767   16.8508 C.ar    1  UNL1        0.0000
      6 C          45.5109   73.5959   17.7223 C.ar    1  UNL1        0.0001
      7 C          45.1279   71.2998   14.5081 C.ar    1  UNL1        0.0002
      8 C          43.8604   70.9644   13.7795 C.ar    1  UNL1        0.0031
      9 C          43.7965   69.7452   12.9080 C.ar    1  UNL1        0.0366
     10 C          45.0001   68.8615   12.7651 C.ar    1  UNL1        0.1337
     11 O          44.9362   67.6423   11.8936 O.3     1  UNL1       -0.5055
     12 C          46.2676   69.1970   13.4937 C.ar    1  UNL1        0.0366
     13 C          46.3315   70.4162   14.3652 C.ar    1  UNL1        0.0031
     14 H          44.1444   67.4328   11.4384 H       1  UNL1        0.2922
     15 C          45.5113   78.6149   19.7371 C.ar    1  UNL1       -0.0150
     16 C          44.1929   78.1495   19.1940 C.ar    1  UNL1       -0.0038
     17 C          44.1290   76.9303   18.3225 C.ar    1  UNL1        0.0019
     18 C          45.3835   76.1765   17.9941 C.ar    1  UNL1        0.0275
     19 C          46.7020   76.6419   18.5373 C.ar    1  UNL1        0.1398
     20 F          47.9566   75.8881   18.2089 F       1  UNL1       -0.2042
     21 C          46.7659   77.8611   19.4088 C.ar    1  UNL1        0.0257
     22 C          45.5315   79.6921   22.1013 C.3     1  UNL1        0.0106
     23 C          45.5752   79.8341   20.6087 C.3     1  UNL1        0.0588
     24 C          45.6829   81.1951   19.9876 C.2     1  UNL1        0.0540
     25 O          44.4762   82.0832   19.9131 O.co2   1  UNL1       -0.5488
     26 O          46.9972   81.6683   19.4409 O.co2   1  UNL1       -0.5488
@<TRIPOS>UNITY_ATOM_ATTR
25 1
charge -1
@<TRIPOS>BOND
     1    22    23    1
     2    23    24    1
     3    24    25   ar
     4    24    26   ar
     5    23    15    1
     6    15    16   ar
     7    16    17   ar
     8    17    18   ar
     9    18     1    1
    10     1     2   ar
    11     2     3   ar
    12     3     4   ar
    13     4     7    1
    14     7     8   ar
    15     8     9   ar
    16     9    10   ar
    17    10    11    1
    18    10    12   ar
    19    12    13   ar
    20     4     5   ar
    21     5     6   ar
    22    18    19   ar
    23    19    20    1
    24    19    21   ar
    25    21    15   ar
    26     6     1   ar
    27    13     7   ar
    28    11    14    1
