@<TRIPOS>MOLECULE
*****
 40 43 0 0 0
SMALL
GASTEIGER

@<TRIPOS>ATOM
      1 C          65.1246   93.3410    0.7367 C.3     1  UNL1        0.0518
      2 C          63.7059   93.1692    1.1925 C.ar    1  UNL1        0.0581
      3 N          63.3876   92.2257    2.3143 N.ar    1  UNL1       -0.2456
      4 C          61.9689   92.0539    2.7701 C.ar    1  UNL1        0.1300
      5 C          60.8685   92.8255    2.1041 C.ar    1  UNL1        0.0001
      6 C          59.4498   92.6537    2.5599 C.3     1  UNL1        0.0328
      7 C          61.1868   93.7690    0.9823 C.ar    1  UNL1       -0.0029
      8 C          62.6055   93.9408    0.5265 C.ar    1  UNL1        0.0232
      9 C          60.0863   94.5408    0.3163 C.ar    1  UNL1       -0.0030
     10 C          59.7981   95.9512    0.7376 C.ar    1  UNL1        0.0029
     11 C          58.6977   96.7229    0.0715 C.ar    1  UNL1        0.0382
     12 C          57.8855   96.0842   -1.0158 C.ar    1  UNL1        0.1515
     13 C          58.1738   94.6737   -1.4372 C.ar    1  UNL1        0.0784
     14 C          59.2742   93.9020   -0.7711 C.ar    1  UNL1       -0.0056
     15 C          59.5624   92.4915   -1.1924 C.3     1  UNL1        0.0324
     16 N          57.3616   94.0349   -2.5245 N.pl3   1  UNL1       -0.3003
     17 C          57.6499   92.6245   -2.9458 C.3     1  UNL1        0.1124
     18 C          56.2612   94.8066   -3.1906 C.3     1  UNL1        0.1386
     19 C          55.9730   96.2171   -2.7692 C.3     1  UNL1        0.2268
     20 O          56.7851   96.8558   -1.6819 O.3     1  UNL1       -0.4724
     21 C          61.6506   91.1103    3.8919 C.2     1  UNL1        0.2632
     22 O          62.4247   89.8342    4.0411 O.2     1  UNL1       -0.2685
     23 N          60.5582   91.4429    4.8646 N.am    1  UNL1       -0.3013
     24 H          60.0501   92.2805    4.7667 H       1  UNL1        0.1497
     25 C          60.2399   90.4995    5.9864 C.3     1  UNL1        0.0719
     26 C          61.0702   90.5123    7.2356 C.3     1  UNL1        0.0196
     27 C          60.7519   89.5688    8.3574 C.3     1  UNL1        0.0017
     28 C          59.6033   88.6125    8.2301 C.3     1  UNL1        0.0001
     29 C          59.2850   87.6690    9.3519 C.3     1  UNL1        0.0000
     30 C          58.7730   88.5997    6.9809 C.3     1  UNL1        0.0017
     31 C          59.0913   89.5432    5.8590 C.3     1  UNL1        0.0196
     32 C          62.9237   94.8844   -0.5953 C.3     1  UNL1        0.1744
     33 C          62.8419   94.4137   -2.0172 C.2     1  UNL1        0.0816
     34 O          62.6583   95.4067   -3.1265 O.co2   1  UNL1       -0.5464
     35 O          62.9436   92.9502   -2.3299 O.co2   1  UNL1       -0.5464
     36 O          63.3239   96.2985   -0.2953 O.3     1  UNL1       -0.3510
     37 C          64.3778   96.5773    0.7350 C.3     1  UNL1        0.0938
     38 C          65.4425   96.4052   -0.3074 C.3     1  UNL1        0.0297
     39 C          63.3132   96.7493    1.7775 C.3     1  UNL1        0.0297
     40 C          65.4317   96.8560    1.7653 C.3     1  UNL1        0.0297
@<TRIPOS>UNITY_ATOM_ATTR
34 1
charge -1
@<TRIPOS>BOND
     1     1     2    1
     2     2     3   ar
     3     3     4   ar
     4     4    21    1
     5    21    22    2
     6    21    23   am
     7    25    23    1
     8    25    26    1
     9    26    27    1
    10    27    28    1
    11    28    29    1
    12    28    30    1
    13    30    31    1
    14     4     5   ar
    15     5     6    1
    16     5     7   ar
    17     7     9    1
    18     9    10   ar
    19    10    11   ar
    20    11    12   ar
    21    12    13   ar
    22    13    14   ar
    23    14    15    1
    24    13    16    1
    25    16    17    1
    26    16    18    1
    27    18    19    1
    28    19    20    1
    29     7     8   ar
    30     8    32    1
    31    32    36    1
    32    36    37    1
    33    37    38    1
    34    37    39    1
    35    37    40    1
    36    32    33    1
    37    33    34   ar
    38    33    35   ar
    39     8     2   ar
    40    31    25    1
    41    14     9   ar
    42    20    12    1
    43    23    24    1
@<TRIPOS>MOLECULE
*****
 40 43 0 0 0
SMALL
GASTEIGER

@<TRIPOS>ATOM
      1 C          65.1376   93.5880    0.9279 C.3     1  UNL1        0.0518
      2 C          63.7104   93.3582    1.3284 C.ar    1  UNL1        0.0581
      3 N          63.3857   92.3830    2.4208 N.ar    1  UNL1       -0.2456
      4 C          61.9585   92.1532    2.8213 C.ar    1  UNL1        0.1300
      5 C          60.8561   92.8986    2.1293 C.ar    1  UNL1        0.0001
      6 C          59.4289   92.6688    2.5298 C.3     1  UNL1        0.0328
      7 C          61.1808   93.8738    1.0369 C.ar    1  UNL1       -0.0029
      8 C          62.6079   94.1036    0.6364 C.ar    1  UNL1        0.0232
      9 C          60.0783   94.6193    0.3448 C.ar    1  UNL1       -0.0030
     10 C          59.7469   96.0225    0.7585 C.ar    1  UNL1        0.0029
     11 C          58.6444   96.7679    0.0665 C.ar    1  UNL1        0.0382
     12 C          57.8733   96.1101   -1.0392 C.ar    1  UNL1        0.1515
     13 C          58.2047   94.7068   -1.4529 C.ar    1  UNL1        0.0784
     14 C          59.3071   93.9614   -0.7609 C.ar    1  UNL1       -0.0056
     15 C          59.6385   92.5582   -1.1746 C.3     1  UNL1        0.0324
     16 N          57.4335   94.0490   -2.5586 N.pl3   1  UNL1       -0.3003
     17 C          57.7649   92.6458   -2.9723 C.3     1  UNL1        0.1124
     18 C          56.3310   94.7945   -3.2507 C.3     1  UNL1        0.1386
     19 C          55.9997   96.1977   -2.8370 C.3     1  UNL1        0.2268
     20 O          56.7709   96.8555   -1.7313 O.3     1  UNL1       -0.4724
     21 C          61.6339   91.1779    3.9138 C.2     1  UNL1        0.2632
     22 O          62.3876   89.8849    4.0133 O.2     1  UNL1       -0.2685
     23 N          60.5555   91.4957    4.9068 N.am    1  UNL1       -0.3013
     24 H          60.0608   92.3444    4.8415 H       1  UNL1        0.1497
     25 C          60.2308   90.5205    5.9993 C.3     1  UNL1        0.0719
     26 C          61.0219   90.5311    7.2736 C.3     1  UNL1        0.0196
     27 C          60.6972   89.5560    8.3661 C.3     1  UNL1        0.0017
     28 C          59.5814   88.5701    8.1842 C.3     1  UNL1        0.0001
     29 C          59.2567   87.5949    9.2767 C.3     1  UNL1        0.0000
     30 C          58.7902   88.5595    6.9099 C.3     1  UNL1        0.0017
     31 C          59.1150   89.5348    5.8174 C.3     1  UNL1        0.0196
     32 C          62.9326   95.0789   -0.4561 C.3     1  UNL1        0.1744
     33 C          63.8320   96.2463   -0.1764 C.2     1  UNL1        0.0816
     34 O          64.6980   96.8041   -1.2669 O.co2   1  UNL1       -0.5464
     35 O          63.8655   96.8560    1.1937 O.co2   1  UNL1       -0.5464
     36 O          62.3579   94.8868   -1.8282 O.3     1  UNL1       -0.3510
     37 C          63.2670   94.6259   -2.9924 C.3     1  UNL1        0.0938
     38 C          62.7768   95.8786   -3.6560 C.3     1  UNL1        0.0297
     39 C          63.7573   93.3732   -2.3289 C.3     1  UNL1        0.0297
     40 C          64.1762   94.3650   -4.1566 C.3     1  UNL1        0.0297
@<TRIPOS>UNITY_ATOM_ATTR
34 1
charge -1
@<TRIPOS>BOND
     1     1     2    1
     2     2     3   ar
     3     3     4   ar
     4     4    21    1
     5    21    22    2
     6    21    23   am
     7    25    23    1
     8    25    26    1
     9    26    27    1
    10    27    28    1
    11    28    29    1
    12    28    30    1
    13    30    31    1
    14     4     5   ar
    15     5     6    1
    16     5     7   ar
    17     7     9    1
    18     9    10   ar
    19    10    11   ar
    20    11    12   ar
    21    12    13   ar
    22    13    14   ar
    23    14    15    1
    24    13    16    1
    25    16    17    1
    26    16    18    1
    27    18    19    1
    28    19    20    1
    29     7     8   ar
    30     8    32    1
    31    32    36    1
    32    36    37    1
    33    37    38    1
    34    37    39    1
    35    37    40    1
    36    32    33    1
    37    33    34   ar
    38    33    35   ar
    39     8     2   ar
    40    31    25    1
    41    14     9   ar
    42    20    12    1
    43    23    24    1
@<TRIPOS>MOLECULE
*****
 40 43 0 0 0
SMALL
GASTEIGER

@<TRIPOS>ATOM
      1 C          64.1413   85.1565   16.0973 C.3     1  UNL1        0.0518
      2 C          64.0464   86.2867   15.1157 C.ar    1  UNL1        0.0581
      3 N          64.6584   87.6167   15.4419 N.ar    1  UNL1       -0.2456
      4 C          64.5634   88.7470   14.4603 C.ar    1  UNL1        0.1300
      5 C          63.8564   88.5472   13.1526 C.ar    1  UNL1        0.0001
      6 C          63.7614   89.6775   12.1710 C.3     1  UNL1        0.0328
      7 C          63.2444   87.2172   12.8264 C.ar    1  UNL1       -0.0029
      8 C          63.3394   86.0869   13.8080 C.ar    1  UNL1        0.0232
      9 C          62.5374   87.0174   11.5186 C.ar    1  UNL1       -0.0030
     10 C          62.8192   85.7976   10.6924 C.ar    1  UNL1        0.0029
     11 C          62.1121   85.5977    9.3846 C.ar    1  UNL1        0.0382
     12 C          61.1233   86.6178    8.9031 C.ar    1  UNL1        0.1515
     13 C          60.8416   87.8376    9.7294 C.ar    1  UNL1        0.0784
     14 C          61.5486   88.0374   11.0371 C.ar    1  UNL1       -0.0056
     15 C          61.2668   89.2572   11.8634 C.3     1  UNL1        0.0324
     16 N          59.8528   88.8576    9.2478 N.pl3   1  UNL1       -0.3003
     17 C          59.5710   90.0774   10.0740 C.3     1  UNL1        0.1124
     18 C          59.1458   88.6578    7.9400 C.3     1  UNL1        0.1386
     19 C          59.4275   87.4380    7.1138 C.3     1  UNL1        0.2268
     20 O          60.4163   86.4180    7.5954 O.3     1  UNL1       -0.4724
     21 C          65.1754   90.0771   14.7865 C.2     1  UNL1        0.2632
     22 O          64.3061   91.2109   15.2432 O.2     1  UNL1       -0.2685
     23 N          66.6568   90.2732   14.6560 N.am    1  UNL1       -0.3013
     24 H          67.2274   89.5290   14.3563 H       1  UNL1        0.1497
     25 C          67.2689   91.6032   14.9822 C.3     1  UNL1        0.0719
     26 C          68.3808   91.6914   15.9851 C.3     1  UNL1        0.0196
     27 C          68.9929   93.0214   16.3113 C.3     1  UNL1        0.0017
     28 C          68.4930   94.2633   15.6346 C.3     1  UNL1        0.0001
     29 C          69.1050   95.5933   15.9608 C.3     1  UNL1        0.0000
     30 C          67.3810   94.1751   14.6317 C.3     1  UNL1        0.0017
     31 C          66.7689   92.8450   14.3055 C.3     1  UNL1        0.0196
     32 C          62.7273   84.7568   13.4817 C.3     1  UNL1        0.1744
     33 C          61.8055   84.0947   14.4624 C.2     1  UNL1        0.0816
     34 O          61.7052   82.5986   14.5052 O.co2   1  UNL1       -0.5464
     35 O          60.9839   84.9286   15.4003 O.co2   1  UNL1       -0.5464
     36 O          63.0372   84.0890   12.1749 O.3     1  UNL1       -0.3510
     37 C          63.8190   82.8090   12.1536 C.3     1  UNL1        0.0938
     38 C          64.9424   83.4829   12.8840 C.3     1  UNL1        0.0297
     39 C          62.6956   82.1350   11.4231 C.3     1  UNL1        0.0297
     40 C          64.6008   81.5290   12.1322 C.3     1  UNL1        0.0297
@<TRIPOS>UNITY_ATOM_ATTR
34 1
charge -1
@<TRIPOS>BOND
     1     1     2    1
     2     2     3   ar
     3     3     4   ar
     4     4    21    1
     5    21    22    2
     6    21    23   am
     7    25    23    1
     8    25    26    1
     9    26    27    1
    10    27    28    1
    11    28    29    1
    12    28    30    1
    13    30    31    1
    14     4     5   ar
    15     5     6    1
    16     5     7   ar
    17     7     9    1
    18     9    10   ar
    19    10    11   ar
    20    11    12   ar
    21    12    13   ar
    22    13    14   ar
    23    14    15    1
    24    13    16    1
    25    16    17    1
    26    16    18    1
    27    18    19    1
    28    19    20    1
    29     7     8   ar
    30     8    32    1
    31    32    36    1
    32    36    37    1
    33    37    38    1
    34    37    39    1
    35    37    40    1
    36    32    33    1
    37    33    34   ar
    38    33    35   ar
    39     8     2   ar
    40    31    25    1
    41    14     9   ar
    42    20    12    1
    43    23    24    1
@<TRIPOS>MOLECULE
*****
 40 43 0 0 0
SMALL
GASTEIGER

@<TRIPOS>ATOM
      1 C          64.9636   89.0617   14.4054 C.3     1  UNL1        0.0518
      2 C          64.0089   88.2980   13.5362 C.ar    1  UNL1        0.0581
      3 N          63.2862   88.9960   12.4225 N.ar    1  UNL1       -0.2456
      4 C          62.3315   88.2324   11.5533 C.ar    1  UNL1        0.1300
      5 C          62.0995   86.7708   11.7980 C.ar    1  UNL1        0.0001
      6 C          61.1447   86.0072   10.9289 C.3     1  UNL1        0.0328
      7 C          62.8221   86.0728   12.9118 C.ar    1  UNL1       -0.0029
      8 C          63.7769   86.8365   13.7809 C.ar    1  UNL1        0.0232
      9 C          62.5901   84.6112   13.1565 C.ar    1  UNL1       -0.0030
     10 C          61.9361   84.1582   14.4281 C.ar    1  UNL1        0.0029
     11 C          61.7040   82.6965   14.6728 C.ar    1  UNL1        0.0382
     12 C          62.1261   81.6879   13.6458 C.ar    1  UNL1        0.1515
     13 C          62.7801   82.1410   12.3742 C.ar    1  UNL1        0.0784
     14 C          63.0121   83.6026   12.1295 C.ar    1  UNL1       -0.0056
     15 C          63.6662   84.0557   10.8579 C.3     1  UNL1        0.0324
     16 N          63.2022   81.1324   11.3472 N.pl3   1  UNL1       -0.3003
     17 C          63.8562   81.5854   10.0756 C.3     1  UNL1        0.1124
     18 C          62.9701   79.6708   11.5919 C.3     1  UNL1        0.1386
     19 C          62.3161   79.2178   12.8635 C.3     1  UNL1        0.2268
     20 O          61.8941   80.2264   13.8905 O.3     1  UNL1       -0.4724
     21 C          61.6088   88.9304   10.4395 C.2     1  UNL1        0.2632
     22 O          61.5221   90.4278   10.4241 O.2     1  UNL1       -0.2685
     23 N          60.9729   88.1310    9.3411 N.am    1  UNL1       -0.3013
     24 H          61.0298   87.1482    9.3512 H       1  UNL1        0.1497
     25 C          60.2502   88.8289    8.2273 C.3     1  UNL1        0.0719
     26 C          60.8348   90.0664    7.6134 C.3     1  UNL1        0.0196
     27 C          60.1121   90.7644    6.4996 C.3     1  UNL1        0.0017
     28 C          58.8048   90.2248    5.9997 C.3     1  UNL1        0.0001
     29 C          58.0821   90.9228    4.8859 C.3     1  UNL1        0.0000
     30 C          58.2202   88.9873    6.6136 C.3     1  UNL1        0.0017
     31 C          58.9429   88.2894    7.7275 C.3     1  UNL1        0.0196
     32 C          64.4996   86.1384   14.8947 C.3     1  UNL1        0.1744
     33 C          65.4028   84.9796   14.5925 C.2     1  UNL1        0.0816
     34 O          64.8830   83.5764   14.6971 O.co2   1  UNL1       -0.5464
     35 O          66.8257   85.2240   14.1857 O.co2   1  UNL1       -0.5464
     36 O          64.3190   86.5992   16.3107 O.3     1  UNL1       -0.3510
     37 C          62.9479   86.6376   16.9179 C.3     1  UNL1        0.0938
     38 C          62.8918   85.1391   16.8862 C.3     1  UNL1        0.0297
     39 C          63.0040   88.1362   16.9497 C.3     1  UNL1        0.0297
     40 C          61.5769   86.6761   17.5251 C.3     1  UNL1        0.0297
@<TRIPOS>UNITY_ATOM_ATTR
34 1
charge -1
@<TRIPOS>BOND
     1     1     2    1
     2     2     3   ar
     3     3     4   ar
     4     4    21    1
     5    21    22    2
     6    21    23   am
     7    25    23    1
     8    25    26    1
     9    26    27    1
    10    27    28    1
    11    28    29    1
    12    28    30    1
    13    30    31    1
    14     4     5   ar
    15     5     6    1
    16     5     7   ar
    17     7     9    1
    18     9    10   ar
    19    10    11   ar
    20    11    12   ar
    21    12    13   ar
    22    13    14   ar
    23    14    15    1
    24    13    16    1
    25    16    17    1
    26    16    18    1
    27    18    19    1
    28    19    20    1
    29     7     8   ar
    30     8    32    1
    31    32    36    1
    32    36    37    1
    33    37    38    1
    34    37    39    1
    35    37    40    1
    36    32    33    1
    37    33    34   ar
    38    33    35   ar
    39     8     2   ar
    40    31    25    1
    41    14     9   ar
    42    20    12    1
    43    23    24    1
@<TRIPOS>MOLECULE
*****
 40 43 0 0 0
SMALL
GASTEIGER

@<TRIPOS>ATOM
      1 C          60.6760   90.9255   10.6186 C.3     1  UNL1        0.0518
      2 C          61.6900   90.1396   11.3958 C.ar    1  UNL1        0.0581
      3 N          62.6702   90.8493   12.2821 N.ar    1  UNL1       -0.2456
      4 C          63.6842   90.0634   13.0593 C.ar    1  UNL1        0.1300
      5 C          63.7180   88.5677   12.9503 C.ar    1  UNL1        0.0001
      6 C          64.7320   87.7818   13.7276 C.3     1  UNL1        0.0328
      7 C          62.7377   87.8580   12.0641 C.ar    1  UNL1       -0.0029
      8 C          61.7237   88.6440   11.2869 C.ar    1  UNL1        0.0232
      9 C          62.7715   86.3623   11.9551 C.ar    1  UNL1       -0.0030
     10 C          62.8794   85.7108   10.6084 C.ar    1  UNL1        0.0029
     11 C          62.9131   84.2151   10.4993 C.ar    1  UNL1        0.0382
     12 C          62.8389   83.3710   11.7371 C.ar    1  UNL1        0.1515
     13 C          62.7310   84.0227   13.0839 C.ar    1  UNL1        0.0784
     14 C          62.6973   85.5183   13.1929 C.ar    1  UNL1       -0.0056
     15 C          62.5894   86.1699   14.5397 C.3     1  UNL1        0.0324
     16 N          62.6568   83.1786   14.3217 N.pl3   1  UNL1       -0.3003
     17 C          62.5489   83.8302   15.6684 C.3     1  UNL1        0.1124
     18 C          62.6906   81.6829   14.2126 C.3     1  UNL1        0.1386
     19 C          62.7985   81.0313   12.8659 C.3     1  UNL1        0.2268
     20 O          62.8727   81.8754   11.6281 O.3     1  UNL1       -0.4724
     21 C          64.6644   90.7731   13.9456 C.2     1  UNL1        0.2632
     22 O          64.4650   90.7773   15.4322 O.2     1  UNL1       -0.2685
     23 N          65.8441   91.4787   13.3452 N.am    1  UNL1       -0.3013
     24 H          65.9750   91.4759   12.3694 H       1  UNL1        0.1497
     25 C          66.8244   92.1884   14.2313 C.3     1  UNL1        0.0719
     26 C          66.8599   93.6877   14.2607 C.3     1  UNL1        0.0196
     27 C          67.8402   94.3974   15.1469 C.3     1  UNL1        0.0017
     28 C          68.7849   93.6079   16.0038 C.3     1  UNL1        0.0001
     29 C          69.7651   94.3176   16.8900 C.3     1  UNL1        0.0000
     30 C          68.7493   92.1086   15.9744 C.3     1  UNL1        0.0017
     31 C          67.7690   91.3989   15.0882 C.3     1  UNL1        0.0196
     32 C          60.7435   87.9342   10.4006 C.3     1  UNL1        0.1744
     33 C          59.3210   87.7606   10.8436 C.2     1  UNL1        0.0816
     34 O          58.3310   87.0867    9.9403 O.co2   1  UNL1       -0.5464
     35 O          58.8884   88.2608   12.1900 O.co2   1  UNL1       -0.5464
     36 O          61.1858   87.3981    9.0713 O.3     1  UNL1       -0.3510
     37 C          60.2500   87.4333    7.8995 C.3     1  UNL1        0.0938
     38 C          60.3707   85.9448    7.7584 C.3     1  UNL1        0.0297
     39 C          60.1293   88.9217    8.0405 C.3     1  UNL1        0.0297
     40 C          59.3143   87.4684    6.7276 C.3     1  UNL1        0.0297
@<TRIPOS>UNITY_ATOM_ATTR
34 1
charge -1
@<TRIPOS>BOND
     1     1     2    1
     2     2     3   ar
     3     3     4   ar
     4     4    21    1
     5    21    22    2
     6    21    23   am
     7    25    23    1
     8    25    26    1
     9    26    27    1
    10    27    28    1
    11    28    29    1
    12    28    30    1
    13    30    31    1
    14     4     5   ar
    15     5     6    1
    16     5     7   ar
    17     7     9    1
    18     9    10   ar
    19    10    11   ar
    20    11    12   ar
    21    12    13   ar
    22    13    14   ar
    23    14    15    1
    24    13    16    1
    25    16    17    1
    26    16    18    1
    27    18    19    1
    28    19    20    1
    29     7     8   ar
    30     8    32    1
    31    32    36    1
    32    36    37    1
    33    37    38    1
    34    37    39    1
    35    37    40    1
    36    32    33    1
    37    33    34   ar
    38    33    35   ar
    39     8     2   ar
    40    31    25    1
    41    14     9   ar
    42    20    12    1
    43    23    24    1
@<TRIPOS>MOLECULE
*****
 40 43 0 0 0
SMALL
GASTEIGER

@<TRIPOS>ATOM
      1 C          64.8078   84.9934   15.3441 C.3     1  UNL1        0.0518
      2 C          64.3941   86.2354   14.6117 C.ar    1  UNL1        0.0581
      3 N          65.0127   87.5555   14.9649 N.ar    1  UNL1       -0.2456
      4 C          64.5990   88.7975   14.2325 C.ar    1  UNL1        0.1300
      5 C          63.5668   88.7194   13.1469 C.ar    1  UNL1        0.0001
      6 C          63.1532   89.9613   12.4146 C.3     1  UNL1        0.0328
      7 C          62.9483   87.3993   12.7938 C.ar    1  UNL1       -0.0029
      8 C          63.3620   86.1573   13.5262 C.ar    1  UNL1        0.0232
      9 C          61.9160   87.3211   11.7082 C.ar    1  UNL1       -0.0030
     10 C          60.5754   87.9659   11.9002 C.ar    1  UNL1        0.0029
     11 C          59.5431   87.8877   10.8146 C.ar    1  UNL1        0.0382
     12 C          59.8516   87.1648    9.5371 C.ar    1  UNL1        0.1515
     13 C          61.1923   86.5200    9.3451 C.ar    1  UNL1        0.0784
     14 C          62.2245   86.5982   10.4306 C.ar    1  UNL1       -0.0056
     15 C          63.5652   85.9534   10.2387 C.3     1  UNL1        0.0324
     16 N          61.5008   85.7970    8.0675 N.pl3   1  UNL1       -0.3003
     17 C          62.8414   85.1523    7.8755 C.3     1  UNL1        0.1124
     18 C          60.4685   85.7189    6.9819 C.3     1  UNL1        0.1386
     19 C          59.1279   86.3637    7.1740 C.3     1  UNL1        0.2268
     20 O          58.8194   87.0866    8.4515 O.3     1  UNL1       -0.4724
     21 C          65.2176   90.1176   14.5857 C.2     1  UNL1        0.2632
     22 O          64.3438   91.2878   14.9277 O.2     1  UNL1       -0.2685
     23 N          66.7101   90.2675   14.5968 N.am    1  UNL1       -0.3013
     24 H          67.2836   89.4994   14.3723 H       1  UNL1        0.1497
     25 C          67.3287   91.5875   14.9500 C.3     1  UNL1        0.0719
     26 C          66.8436   92.8438   14.2894 C.3     1  UNL1        0.0196
     27 C          67.4622   94.1638   14.6426 C.3     1  UNL1        0.0017
     28 C          68.5659   94.2276   15.6564 C.3     1  UNL1        0.0001
     29 C          69.1845   95.5477   16.0096 C.3     1  UNL1        0.0000
     30 C          69.0510   92.9713   16.3170 C.3     1  UNL1        0.0017
     31 C          68.4324   91.6512   15.9638 C.3     1  UNL1        0.0196
     32 C          62.7434   84.8372   13.1730 C.3     1  UNL1        0.1744
     33 C          61.9258   84.0962   14.1891 C.2     1  UNL1        0.0816
     34 O          61.2758   84.8418   15.3169 O.co2   1  UNL1       -0.5464
     35 O          61.7581   82.6098   14.0775 O.co2   1  UNL1       -0.5464
     36 O          62.9424   84.2581   11.8037 O.3     1  UNL1       -0.3510
     37 C          63.6004   82.9195   11.6438 C.3     1  UNL1        0.0938
     38 C          62.4048   82.4222   10.8867 C.3     1  UNL1        0.0297
     39 C          64.7959   83.4169   12.4009 C.3     1  UNL1        0.0297
     40 C          64.2584   81.5811   11.4840 C.3     1  UNL1        0.0297
@<TRIPOS>UNITY_ATOM_ATTR
34 1
charge -1
@<TRIPOS>BOND
     1     1     2    1
     2     2     3   ar
     3     3     4   ar
     4     4    21    1
     5    21    22    2
     6    21    23   am
     7    25    23    1
     8    25    26    1
     9    26    27    1
    10    27    28    1
    11    28    29    1
    12    28    30    1
    13    30    31    1
    14     4     5   ar
    15     5     6    1
    16     5     7   ar
    17     7     9    1
    18     9    10   ar
    19    10    11   ar
    20    11    12   ar
    21    12    13   ar
    22    13    14   ar
    23    14    15    1
    24    13    16    1
    25    16    17    1
    26    16    18    1
    27    18    19    1
    28    19    20    1
    29     7     8   ar
    30     8    32    1
    31    32    36    1
    32    36    37    1
    33    37    38    1
    34    37    39    1
    35    37    40    1
    36    32    33    1
    37    33    34   ar
    38    33    35   ar
    39     8     2   ar
    40    31    25    1
    41    14     9   ar
    42    20    12    1
    43    23    24    1
@<TRIPOS>MOLECULE
*****
 40 43 0 0 0
SMALL
GASTEIGER

@<TRIPOS>ATOM
      1 C          61.9078   89.5717    9.8249 C.3     1  UNL1        0.0518
      2 C          62.5445   89.0838   11.0924 C.ar    1  UNL1        0.0581
      3 N          63.3939   90.0110   11.9102 N.ar    1  UNL1       -0.2456
      4 C          64.0306   89.5231   13.1777 C.ar    1  UNL1        0.1300
      5 C          63.8179   88.1081   13.6275 C.ar    1  UNL1        0.0001
      6 C          64.4545   87.6202   14.8950 C.3     1  UNL1        0.0328
      7 C          62.9684   87.1809   12.8097 C.ar    1  UNL1       -0.0029
      8 C          62.3317   87.6688   11.5422 C.ar    1  UNL1        0.0232
      9 C          62.7556   85.7658   13.2595 C.ar    1  UNL1       -0.0030
     10 C          61.8852   85.4791   14.4469 C.ar    1  UNL1        0.0029
     11 C          61.6724   84.0639   14.8967 C.ar    1  UNL1        0.0382
     12 C          62.3301   82.9356   14.1589 C.ar    1  UNL1        0.1515
     13 C          63.2006   83.2224   12.9714 C.ar    1  UNL1        0.0784
     14 C          63.4133   84.6374   12.5217 C.ar    1  UNL1       -0.0056
     15 C          64.2838   84.9242   11.3342 C.3     1  UNL1        0.0324
     16 N          63.8583   82.0940   12.2337 N.pl3   1  UNL1       -0.3003
     17 C          64.7287   82.3807   11.0463 C.3     1  UNL1        0.1124
     18 C          63.6455   80.6789   12.6834 C.3     1  UNL1        0.1386
     19 C          62.7750   80.3922   13.8709 C.3     1  UNL1        0.2268
     20 O          62.1173   81.5205   14.6086 O.3     1  UNL1       -0.4724
     21 C          64.8801   90.4504   13.9954 C.2     1  UNL1        0.2632
     22 O          64.5248   90.7274   15.4261 O.2     1  UNL1       -0.2685
     23 N          66.0849   91.1005   13.3824 N.am    1  UNL1       -0.3013
     24 H          66.3181   90.9187   12.4434 H       1  UNL1        0.1497
     25 C          66.9343   92.0277   14.2001 C.3     1  UNL1        0.0719
     26 C          67.9573   91.4705   15.1451 C.3     1  UNL1        0.0196
     27 C          68.8068   92.3977   15.9628 C.3     1  UNL1        0.0017
     28 C          68.6333   93.8823   15.8355 C.3     1  UNL1        0.0001
     29 C          69.4828   94.8095   16.6532 C.3     1  UNL1        0.0000
     30 C          67.6103   94.4395   14.8905 C.3     1  UNL1        0.0017
     31 C          66.7608   93.5122   14.0728 C.3     1  UNL1        0.0196
     32 C          61.4823   86.7415   10.7244 C.3     1  UNL1        0.1744
     33 C          60.0769   87.1281   10.3703 C.2     1  UNL1        0.0816
     34 O          59.4712   86.6558    9.0818 O.co2   1  UNL1       -0.5464
     35 O          59.2772   87.9869   11.3045 O.co2   1  UNL1       -0.5464
     36 O          62.0382   85.4278   10.2609 O.3     1  UNL1       -0.3510
     37 C          62.4303   85.2441    8.8247 C.3     1  UNL1        0.0938
     38 C          62.6991   86.7153    8.7098 C.3     1  UNL1        0.0297
     39 C          62.1614   83.7729    8.9395 C.3     1  UNL1        0.0297
     40 C          62.8223   85.0604    7.3885 C.3     1  UNL1        0.0297
@<TRIPOS>UNITY_ATOM_ATTR
34 1
charge -1
@<TRIPOS>BOND
     1     1     2    1
     2     2     3   ar
     3     3     4   ar
     4     4    21    1
     5    21    22    2
     6    21    23   am
     7    25    23    1
     8    25    26    1
     9    26    27    1
    10    27    28    1
    11    28    29    1
    12    28    30    1
    13    30    31    1
    14     4     5   ar
    15     5     6    1
    16     5     7   ar
    17     7     9    1
    18     9    10   ar
    19    10    11   ar
    20    11    12   ar
    21    12    13   ar
    22    13    14   ar
    23    14    15    1
    24    13    16    1
    25    16    17    1
    26    16    18    1
    27    18    19    1
    28    19    20    1
    29     7     8   ar
    30     8    32    1
    31    32    36    1
    32    36    37    1
    33    37    38    1
    34    37    39    1
    35    37    40    1
    36    32    33    1
    37    33    34   ar
    38    33    35   ar
    39     8     2   ar
    40    31    25    1
    41    14     9   ar
    42    20    12    1
    43    23    24    1
