@<TRIPOS>MOLECULE
*****
 25 28 0 0 0
SMALL
GASTEIGER

@<TRIPOS>ATOM
      1 C          65.7007   93.4854   11.3339 C.3     1  UNL1        0.0622
      2 C          66.0954   93.2764   12.7658 C.3     1  UNL1        0.0291
      3 C          65.5092   92.1378   13.5468 C.3     1  UNL1        0.0954
      4 N          64.5283   91.2082   12.8959 N.am    1  UNL1       -0.2642
      5 C          63.9421   90.0696   13.6769 C.2     1  UNL1        0.3039
      6 O          62.9612   89.1400   13.0260 O.2     1  UNL1       -0.2526
      7 N          64.3368   89.8606   15.1088 N.am    1  UNL1       -0.2901
      8 C          64.1336   91.4172   11.4639 C.3     1  UNL1        0.0954
      9 C          64.7198   92.5558   10.6830 C.3     1  UNL1        0.0291
     10 H          64.9806   90.4707   15.5361 H       1  UNL1        0.1509
     11 C          68.0708   93.2612    9.1018 C.3     1  UNL1        0.1333
     12 N          67.3763   94.5209    9.5269 N.ar    1  UNL1       -0.2943
     13 C          67.6493   95.8988    9.0007 C.ar    1  UNL1        0.2025
     14 N          66.7286   96.8535    9.7014 N.ar    1  UNL1       -0.1259
     15 N          65.8866   96.0656   10.6607 N.ar    1  UNL1       -0.1333
     16 C          66.2869   94.6240   10.5529 C.ar    1  UNL1        0.1430
     17 C          63.7506   88.7220   15.8899 C.3     1  UNL1        0.0774
     18 C          62.9974   88.2184   17.0854 C.3     1  UNL1        0.0259
     19 C          63.4884   87.2535   16.0472 C.3     1  UNL1        0.0420
     20 C          63.6205   85.8485   15.5386 C.ar    1  UNL1       -0.0208
     21 C          64.8032   85.4622   14.7009 C.ar    1  UNL1       -0.0042
     22 C          64.9353   84.0573   14.1923 C.ar    1  UNL1       -0.0003
     23 C          63.8846   83.0386   14.5215 C.ar    1  UNL1       -0.0000
     24 C          62.7018   83.4249   15.3592 C.ar    1  UNL1       -0.0003
     25 C          62.5698   84.8299   15.8678 C.ar    1  UNL1       -0.0042
@<TRIPOS>BOND
     1    11    12    1
     2    12    13   ar
     3    13    14   ar
     4    14    15   ar
     5    15    16   ar
     6    16     1    1
     7     1     2    1
     8     2     3    1
     9     3     4    1
    10     4     5   am
    11     5     6    2
    12     5     7   am
    13     7    17    1
    14    17    18    1
    15    18    19    1
    16    19    20    1
    17    20    21   ar
    18    21    22   ar
    19    22    23   ar
    20    23    24   ar
    21    24    25   ar
    22     4     8    1
    23     8     9    1
    24    16    12   ar
    25     9     1    1
    26    19    17    1
    27    25    20   ar
    28     7    10    1
@<TRIPOS>MOLECULE
*****
 25 28 0 0 0
SMALL
GASTEIGER

@<TRIPOS>ATOM
      1 C          63.0574   83.4205   13.3537 C.3     1  UNL1        0.0622
      2 C          62.6161   84.3579   12.2691 C.3     1  UNL1        0.0291
      3 C          62.9175   85.8234   12.3758 C.3     1  UNL1        0.0954
      4 N          63.6603   86.3515   13.5671 N.am    1  UNL1       -0.2642
      5 C          63.9617   87.8171   13.6738 C.2     1  UNL1        0.3039
      6 O          64.7045   88.3452   14.8652 O.2     1  UNL1       -0.2526
      7 N          63.5203   88.7544   12.5892 N.am    1  UNL1       -0.2901
      8 C          64.1016   85.4142   14.6518 C.3     1  UNL1        0.0954
      9 C          63.8002   83.9487   14.5451 C.3     1  UNL1        0.0291
     10 H          63.0328   88.4078   11.8072 H       1  UNL1        0.1509
     11 C          63.4742   81.5644   10.7021 C.3     1  UNL1        0.1333
     12 N          62.9476   81.1018   12.0283 N.ar    1  UNL1       -0.2943
     13 C          62.5201   79.7049   12.3685 C.ar    1  UNL1        0.2025
     14 N          62.0643   79.6946   13.7976 N.ar    1  UNL1       -0.1259
     15 N          62.2101   81.0852   14.3405 N.ar    1  UNL1       -0.1333
     16 C          62.7560   81.9549   13.2471 C.ar    1  UNL1        0.1430
     17 C          63.8217   90.2200   12.6958 C.3     1  UNL1        0.0774
     18 C          63.5049   91.6410   12.3347 C.3     1  UNL1        0.0259
     19 C          64.6605   91.3374   13.2417 C.3     1  UNL1        0.0420
     20 C          65.8118   91.8072   14.0804 C.ar    1  UNL1       -0.0208
     21 C          65.5904   92.1818   15.5159 C.ar    1  UNL1       -0.0042
     22 C          66.7418   92.6516   16.3546 C.ar    1  UNL1       -0.0003
     23 C          68.1147   92.7468   15.7579 C.ar    1  UNL1       -0.0000
     24 C          68.3362   92.3722   14.3224 C.ar    1  UNL1       -0.0003
     25 C          67.1847   91.9024   13.4837 C.ar    1  UNL1       -0.0042
@<TRIPOS>BOND
     1    11    12    1
     2    12    13   ar
     3    13    14   ar
     4    14    15   ar
     5    15    16   ar
     6    16     1    1
     7     1     2    1
     8     2     3    1
     9     3     4    1
    10     4     5   am
    11     5     6    2
    12     5     7   am
    13     7    17    1
    14    17    18    1
    15    18    19    1
    16    19    20    1
    17    20    21   ar
    18    21    22   ar
    19    22    23   ar
    20    23    24   ar
    21    24    25   ar
    22     4     8    1
    23     8     9    1
    24    16    12   ar
    25     9     1    1
    26    19    17    1
    27    25    20   ar
    28     7    10    1
@<TRIPOS>MOLECULE
*****
 25 28 0 0 0
SMALL
GASTEIGER

@<TRIPOS>ATOM
      1 C          66.0984   92.0404   13.9983 C.3     1  UNL1        0.0622
      2 C          65.3590   90.8361   14.5010 C.3     1  UNL1        0.0291
      3 C          64.3029   90.1952   13.6502 C.3     1  UNL1        0.0954
      4 N          63.9863   90.7587   12.2966 N.am    1  UNL1       -0.2642
      5 C          62.9302   90.1178   11.4457 C.2     1  UNL1        0.3039
      6 O          62.6136   90.6813   10.0921 O.2     1  UNL1       -0.2526
      7 N          62.1907   88.9135   11.9484 N.am    1  UNL1       -0.2901
      8 C          64.7257   91.9631   11.7938 C.3     1  UNL1        0.0954
      9 C          65.7818   92.6039   12.6447 C.3     1  UNL1        0.0291
     10 H          62.3986   88.5437   12.8368 H       1  UNL1        0.1509
     11 C          69.3163   91.9343   13.4659 C.3     1  UNL1        0.1333
     12 N          68.6336   92.6325   14.6045 N.ar    1  UNL1       -0.2943
     13 C          69.3101   93.4045   15.6982 C.ar    1  UNL1        0.2025
     14 N          68.2491   93.9305   16.6190 N.ar    1  UNL1       -0.1259
     15 N          66.9169   93.4835   16.0942 N.ar    1  UNL1       -0.1333
     16 C          67.1545   92.6813   14.8492 C.ar    1  UNL1        0.1430
     17 C          61.1346   88.2726   11.0975 C.3     1  UNL1        0.0774
     18 C          59.6881   88.0644   10.7597 C.3     1  UNL1        0.0259
     19 C          60.7520   87.3709    9.9615 C.3     1  UNL1        0.0420
     20 C          61.1453   86.4499    8.8449 C.ar    1  UNL1       -0.0208
     21 C          62.5379   85.8958    8.7849 C.ar    1  UNL1       -0.0042
     22 C          62.9312   84.9748    7.6682 C.ar    1  UNL1       -0.0003
     23 C          61.9319   84.6078    6.6114 C.ar    1  UNL1       -0.0000
     24 C          60.5393   85.1618    6.6714 C.ar    1  UNL1       -0.0003
     25 C          60.1460   86.0829    7.7882 C.ar    1  UNL1       -0.0042
@<TRIPOS>BOND
     1    11    12    1
     2    12    13   ar
     3    13    14   ar
     4    14    15   ar
     5    15    16   ar
     6    16     1    1
     7     1     2    1
     8     2     3    1
     9     3     4    1
    10     4     5   am
    11     5     6    2
    12     5     7   am
    13     7    17    1
    14    17    18    1
    15    18    19    1
    16    19    20    1
    17    20    21   ar
    18    21    22   ar
    19    22    23   ar
    20    23    24   ar
    21    24    25   ar
    22     4     8    1
    23     8     9    1
    24    16    12   ar
    25     9     1    1
    26    19    17    1
    27    25    20   ar
    28     7    10    1
@<TRIPOS>MOLECULE
*****
 25 28 0 0 0
SMALL
GASTEIGER

@<TRIPOS>ATOM
      1 C          63.1754   84.8318   13.4920 C.3     1  UNL1        0.0622
      2 C          64.0357   85.4031   14.5798 C.3     1  UNL1        0.0291
      3 C          64.3965   86.8589   14.5641 C.3     1  UNL1        0.0954
      4 N          63.8970   87.7435   13.4605 N.am    1  UNL1       -0.2642
      5 C          64.2578   89.1994   13.4448 C.2     1  UNL1        0.3039
      6 O          63.7583   90.0840   12.3412 O.2     1  UNL1       -0.2526
      7 N          65.1181   89.7707   14.5327 N.am    1  UNL1       -0.2901
      8 C          63.0367   87.1723   12.3726 C.3     1  UNL1        0.0954
      9 C          62.6759   85.7164   12.3884 C.3     1  UNL1        0.0291
     10 H          65.4460   89.1900   15.2570 H       1  UNL1        0.1509
     11 C          64.0071   82.6249   11.2363 C.3     1  UNL1        0.1333
     12 N          63.1968   82.3616   12.4709 N.ar    1  UNL1       -0.2943
     13 C          62.6266   81.0375   12.8854 C.ar    1  UNL1        0.2025
     14 N          61.8919   81.2336   14.1784 N.ar    1  UNL1       -0.1259
     15 N          62.0081   82.6788   14.5630 N.ar    1  UNL1       -0.1333
     16 C          62.8146   83.3759   13.5077 C.ar    1  UNL1        0.1430
     17 C          65.4790   91.2266   14.5170 C.3     1  UNL1        0.0774
     18 C          65.6700   92.5254   15.2425 C.3     1  UNL1        0.0259
     19 C          65.9129   92.4494   13.7643 C.3     1  UNL1        0.0420
     20 C          66.3036   93.1114   12.4763 C.ar    1  UNL1       -0.0208
     21 C          66.1328   94.5925   12.3123 C.ar    1  UNL1       -0.0042
     22 C          66.5236   95.2546   11.0243 C.ar    1  UNL1       -0.0003
     23 C          67.0851   94.4354    9.9002 C.ar    1  UNL1       -0.0000
     24 C          67.2560   92.9542   10.0641 C.ar    1  UNL1       -0.0003
     25 C          66.8652   92.2922   11.3522 C.ar    1  UNL1       -0.0042
@<TRIPOS>BOND
     1    11    12    1
     2    12    13   ar
     3    13    14   ar
     4    14    15   ar
     5    15    16   ar
     6    16     1    1
     7     1     2    1
     8     2     3    1
     9     3     4    1
    10     4     5   am
    11     5     6    2
    12     5     7   am
    13     7    17    1
    14    17    18    1
    15    18    19    1
    16    19    20    1
    17    20    21   ar
    18    21    22   ar
    19    22    23   ar
    20    23    24   ar
    21    24    25   ar
    22     4     8    1
    23     8     9    1
    24    16    12   ar
    25     9     1    1
    26    19    17    1
    27    25    20   ar
    28     7    10    1
@<TRIPOS>MOLECULE
*****
 25 28 0 0 0
SMALL
GASTEIGER

@<TRIPOS>ATOM
      1 C          63.0183   83.3882   12.2737 C.3     1  UNL1        0.0622
      2 C          63.7323   83.8612   13.5051 C.3     1  UNL1        0.0291
      3 C          63.8799   85.3304   13.7688 C.3     1  UNL1        0.0954
      4 N          63.3135   86.3267   12.8010 N.am    1  UNL1       -0.2642
      5 C          63.4611   87.7960   13.0647 C.2     1  UNL1        0.3039
      6 O          62.8947   88.7923   12.0969 O.2     1  UNL1       -0.2526
      7 N          64.1751   88.2689   14.2961 N.am    1  UNL1       -0.2901
      8 C          62.5995   85.8537   11.5696 C.3     1  UNL1        0.0954
      9 C          62.4519   84.3845   11.3059 C.3     1  UNL1        0.0291
     10 H          64.5469   87.6150   14.9313 H       1  UNL1        0.1509
     11 C          61.7044   81.1974   14.3044 C.3     1  UNL1        0.1333
     12 N          62.2668   80.9120   12.9434 N.ar    1  UNL1       -0.2943
     13 C          62.3239   79.5694   12.2769 C.ar    1  UNL1        0.2025
     14 N          62.9632   79.7466   10.9315 N.ar    1  UNL1       -0.1259
     15 N          63.3011   81.1987   10.7666 N.ar    1  UNL1       -0.1333
     16 C          62.8707   81.9189   12.0100 C.ar    1  UNL1        0.1430
     17 C          64.3227   89.7382   14.5598 C.3     1  UNL1        0.0774
     18 C          64.2340   90.9049   15.4984 C.3     1  UNL1        0.0259
     19 C          64.6671   91.1163   14.0780 C.3     1  UNL1        0.0420
     20 C          65.1161   92.0340   12.9797 C.ar    1  UNL1       -0.0208
     21 C          66.0789   93.1451   13.2773 C.ar    1  UNL1       -0.0042
     22 C          66.5278   94.0628   12.1790 C.ar    1  UNL1       -0.0003
     23 C          66.0139   93.8695   10.7831 C.ar    1  UNL1       -0.0000
     24 C          65.0510   92.7585   10.4855 C.ar    1  UNL1       -0.0003
     25 C          64.6021   91.8407   11.5839 C.ar    1  UNL1       -0.0042
@<TRIPOS>BOND
     1    11    12    1
     2    12    13   ar
     3    13    14   ar
     4    14    15   ar
     5    15    16   ar
     6    16     1    1
     7     1     2    1
     8     2     3    1
     9     3     4    1
    10     4     5   am
    11     5     6    2
    12     5     7   am
    13     7    17    1
    14    17    18    1
    15    18    19    1
    16    19    20    1
    17    20    21   ar
    18    21    22   ar
    19    22    23   ar
    20    23    24   ar
    21    24    25   ar
    22     4     8    1
    23     8     9    1
    24    16    12   ar
    25     9     1    1
    26    19    17    1
    27    25    20   ar
    28     7    10    1
@<TRIPOS>MOLECULE
*****
 25 28 0 0 0
SMALL
GASTEIGER

@<TRIPOS>ATOM
      1 C          62.8186   83.6028   12.8492 C.3     1  UNL1        0.0622
      2 C          63.5649   84.2792   13.9607 C.3     1  UNL1        0.0291
      3 C          63.7775   85.7636   13.9267 C.3     1  UNL1        0.0954
      4 N          63.2437   86.5717   12.7812 N.am    1  UNL1       -0.2642
      5 C          63.4563   88.0562   12.7472 C.2     1  UNL1        0.3039
      6 O          62.9225   88.8643   11.6017 O.2     1  UNL1       -0.2526
      7 N          64.2027   88.7326   13.8587 N.am    1  UNL1       -0.2901
      8 C          62.4973   85.8953   11.6697 C.3     1  UNL1        0.0954
      9 C          62.2848   84.4109   11.7037 C.3     1  UNL1        0.0291
     10 H          64.5530   88.2022   14.6105 H       1  UNL1        0.1509
     11 C          63.5395   81.5064   10.4544 C.3     1  UNL1        0.1333
     12 N          62.9373   81.1547   11.7824 N.ar    1  UNL1       -0.2943
     13 C          62.5608   79.7777   12.2428 C.ar    1  UNL1        0.2025
     14 N          61.9967   79.8902   13.6282 N.ar    1  UNL1       -0.1259
     15 N          62.0246   81.3368   14.0239 N.ar    1  UNL1       -0.1333
     16 C          62.6059   82.1183   12.8832 C.ar    1  UNL1        0.1430
     17 C          64.4153   90.2171   13.8247 C.3     1  UNL1        0.0774
     18 C          63.9112   91.5947   13.5117 C.3     1  UNL1        0.0259
     19 C          65.2876   91.4106   14.0788 C.3     1  UNL1        0.0420
     20 C          66.5859   91.9934   14.5528 C.ar    1  UNL1       -0.0208
     21 C          66.6270   92.8086   15.8113 C.ar    1  UNL1       -0.0042
     22 C          67.9253   93.3913   16.2854 C.ar    1  UNL1       -0.0003
     23 C          69.1826   93.1589   15.5010 C.ar    1  UNL1       -0.0000
     24 C          69.1415   92.3437   14.2425 C.ar    1  UNL1       -0.0003
     25 C          67.8431   91.7609   13.7684 C.ar    1  UNL1       -0.0042
@<TRIPOS>BOND
     1    11    12    1
     2    12    13   ar
     3    13    14   ar
     4    14    15   ar
     5    15    16   ar
     6    16     1    1
     7     1     2    1
     8     2     3    1
     9     3     4    1
    10     4     5   am
    11     5     6    2
    12     5     7   am
    13     7    17    1
    14    17    18    1
    15    18    19    1
    16    19    20    1
    17    20    21   ar
    18    21    22   ar
    19    22    23   ar
    20    23    24   ar
    21    24    25   ar
    22     4     8    1
    23     8     9    1
    24    16    12   ar
    25     9     1    1
    26    19    17    1
    27    25    20   ar
    28     7    10    1
@<TRIPOS>MOLECULE
*****
 25 28 0 0 0
SMALL
GASTEIGER

@<TRIPOS>ATOM
      1 C          62.7585   94.0549    1.0893 C.3     1  UNL1        0.0622
      2 C          63.2772   92.9370    1.9444 C.3     1  UNL1        0.0291
      3 C          62.3664   92.2565    2.9229 C.3     1  UNL1        0.0954
      4 N          60.9369   92.6939    3.0462 N.am    1  UNL1       -0.2642
      5 C          60.0261   92.0133    4.0247 C.2     1  UNL1        0.3039
      6 O          58.5966   92.4507    4.1480 O.2     1  UNL1       -0.2526
      7 N          60.5449   90.8955    4.8798 N.am    1  UNL1       -0.2901
      8 C          60.4182   93.8117    2.1911 C.3     1  UNL1        0.0954
      9 C          61.3289   94.4922    1.2126 C.3     1  UNL1        0.0291
     10 H          61.4831   90.6084    4.7988 H       1  UNL1        0.1509
     11 C          64.9848   96.3313    1.8042 C.3     1  UNL1        0.1333
     12 N          64.6925   95.7818    0.4394 N.ar    1  UNL1       -0.2943
     13 C          65.3723   96.1822   -0.8364 C.ar    1  UNL1        0.2025
     14 N          64.7691   95.3832   -1.9535 N.ar    1  UNL1       -0.1259
     15 N          63.7166   94.4891   -1.3681 N.ar    1  UNL1       -0.1333
     16 C          63.6692   94.7355    0.1108 C.ar    1  UNL1        0.1430
     17 C          59.6341   90.2149    5.8583 C.3     1  UNL1        0.0774
     18 C          58.2498   89.9057    6.3461 C.3     1  UNL1        0.0259
     19 C          59.4410   89.3454    7.0652 C.3     1  UNL1        0.0420
     20 C          60.0172   88.5200    8.1772 C.ar    1  UNL1       -0.0208
     21 C          60.5352   89.1880    9.4164 C.ar    1  UNL1       -0.0042
     22 C          61.1114   88.3625   10.5283 C.ar    1  UNL1       -0.0003
     23 C          61.1697   86.8690   10.4012 C.ar    1  UNL1       -0.0000
     24 C          60.6517   86.2010    9.1621 C.ar    1  UNL1       -0.0003
     25 C          60.0754   87.0265    8.0501 C.ar    1  UNL1       -0.0042
@<TRIPOS>BOND
     1    11    12    1
     2    12    13   ar
     3    13    14   ar
     4    14    15   ar
     5    15    16   ar
     6    16     1    1
     7     1     2    1
     8     2     3    1
     9     3     4    1
    10     4     5   am
    11     5     6    2
    12     5     7   am
    13     7    17    1
    14    17    18    1
    15    18    19    1
    16    19    20    1
    17    20    21   ar
    18    21    22   ar
    19    22    23   ar
    20    23    24   ar
    21    24    25   ar
    22     4     8    1
    23     8     9    1
    24    16    12   ar
    25     9     1    1
    26    19    17    1
    27    25    20   ar
    28     7    10    1
@<TRIPOS>MOLECULE
*****
 25 28 0 0 0
SMALL
GASTEIGER

@<TRIPOS>ATOM
      1 C          59.4557   89.1683    7.2850 C.3     1  UNL1        0.0622
      2 C          60.1545   89.7636    8.4712 C.3     1  UNL1        0.0291
      3 C          60.8432   88.8718    9.4614 C.3     1  UNL1        0.0954
      4 N          60.8330   87.3847    9.2652 N.am    1  UNL1       -0.2642
      5 C          61.5217   86.4929   10.2554 C.2     1  UNL1        0.3039
      6 O          61.5116   85.0058   10.0593 O.2     1  UNL1       -0.2526
      7 N          62.2205   87.0882   11.4417 N.am    1  UNL1       -0.2901
      8 C          60.1342   86.7894    8.0790 C.3     1  UNL1        0.0954
      9 C          59.4456   87.6812    7.0888 C.3     1  UNL1        0.0291
     10 H          62.2272   88.0642   11.5704 H       1  UNL1        0.1509
     11 C          60.9169   91.0122    5.0234 C.3     1  UNL1        0.1333
     12 N          59.4387   90.9076    5.2553 N.ar    1  UNL1       -0.2943
     13 C          58.3725   91.6323    4.4883 C.ar    1  UNL1        0.2025
     14 N          57.0419   91.2326    5.0538 N.ar    1  UNL1       -0.1259
     15 N          57.2857   90.2609    6.1702 N.ar    1  UNL1       -0.1333
     16 C          58.7670   90.0601    6.2947 C.ar    1  UNL1        0.1430
     17 C          62.9092   86.1964   12.4319 C.3     1  UNL1        0.0774
     18 C          63.8711   86.0165   13.5687 C.3     1  UNL1        0.0259
     19 C          63.1402   84.8317   13.0102 C.3     1  UNL1        0.0420
     20 C          62.8515   83.3598   13.0215 C.ar    1  UNL1       -0.0208
     21 C          63.1962   82.5187   11.8283 C.ar    1  UNL1       -0.0042
     22 C          62.9075   81.0468   11.8396 C.ar    1  UNL1       -0.0003
     23 C          62.2741   80.4160   13.0442 C.ar    1  UNL1       -0.0000
     24 C          61.9293   81.2571   14.2374 C.ar    1  UNL1       -0.0003
     25 C          62.2181   82.7291   14.2260 C.ar    1  UNL1       -0.0042
@<TRIPOS>BOND
     1    11    12    1
     2    12    13   ar
     3    13    14   ar
     4    14    15   ar
     5    15    16   ar
     6    16     1    1
     7     1     2    1
     8     2     3    1
     9     3     4    1
    10     4     5   am
    11     5     6    2
    12     5     7   am
    13     7    17    1
    14    17    18    1
    15    18    19    1
    16    19    20    1
    17    20    21   ar
    18    21    22   ar
    19    22    23   ar
    20    23    24   ar
    21    24    25   ar
    22     4     8    1
    23     8     9    1
    24    16    12   ar
    25     9     1    1
    26    19    17    1
    27    25    20   ar
    28     7    10    1
@<TRIPOS>MOLECULE
*****
 25 28 0 0 0
SMALL
GASTEIGER

@<TRIPOS>ATOM
      1 C          62.8196   83.4310   12.9215 C.3     1  UNL1        0.0622
      2 C          62.3082   84.0633   11.6611 C.3     1  UNL1        0.0291
      3 C          62.4527   85.5415   11.4515 C.3     1  UNL1        0.0954
      4 N          63.1085   86.3875   12.5024 N.am    1  UNL1       -0.2642
      5 C          63.2529   87.8658   12.2928 C.2     1  UNL1        0.3039
      6 O          63.9086   88.7117   13.3437 O.2     1  UNL1       -0.2526
      7 N          62.7416   88.4981   11.0324 N.am    1  UNL1       -0.2901
      8 C          63.6198   85.7552   13.7629 C.3     1  UNL1        0.0954
      9 C          63.4753   84.2770   13.9724 C.3     1  UNL1        0.0291
     10 H          62.3112   87.9428   10.3427 H       1  UNL1        0.1509
     11 C          63.2616   81.1206   10.6595 C.3     1  UNL1        0.1333
     12 N          62.8783   80.8908   12.0914 N.ar    1  UNL1       -0.2943
     13 C          62.6309   79.5587   12.7349 C.ar    1  UNL1        0.2025
     14 N          62.2748   79.7973   14.1724 N.ar    1  UNL1       -0.1259
     15 N          62.3021   81.2769   14.4172 N.ar    1  UNL1       -0.1333
     16 C          62.6751   81.9527   13.1311 C.ar    1  UNL1        0.1430
     17 C          62.8860   89.9764   10.8228 C.3     1  UNL1        0.0774
     18 C          62.4523   91.2402   10.1413 C.3     1  UNL1        0.0259
     19 C          63.5699   91.2729   11.1413 C.3     1  UNL1        0.0420
     20 C          64.6099   92.0402   11.9025 C.ar    1  UNL1       -0.0208
     21 C          65.3417   93.1704   11.2413 C.ar    1  UNL1       -0.0042
     22 C          66.3817   93.9377   12.0025 C.ar    1  UNL1       -0.0003
     23 C          66.6900   93.5749   13.4250 C.ar    1  UNL1       -0.0000
     24 C          65.9581   92.4448   14.0862 C.ar    1  UNL1       -0.0003
     25 C          64.9181   91.6774   13.3249 C.ar    1  UNL1       -0.0042
@<TRIPOS>BOND
     1    11    12    1
     2    12    13   ar
     3    13    14   ar
     4    14    15   ar
     5    15    16   ar
     6    16     1    1
     7     1     2    1
     8     2     3    1
     9     3     4    1
    10     4     5   am
    11     5     6    2
    12     5     7   am
    13     7    17    1
    14    17    18    1
    15    18    19    1
    16    19    20    1
    17    20    21   ar
    18    21    22   ar
    19    22    23   ar
    20    23    24   ar
    21    24    25   ar
    22     4     8    1
    23     8     9    1
    24    16    12   ar
    25     9     1    1
    26    19    17    1
    27    25    20   ar
    28     7    10    1
