@<TRIPOS>MOLECULE
*****
 24 26 0 0 0
SMALL
GASTEIGER

@<TRIPOS>ATOM
      1 N          61.5157   89.8059   12.6543 N.pl3   1  UNL1       -0.2150
      2 H          60.7089   90.0983   13.1369 H       1  UNL1        0.1737
      3 C          62.8640   90.3159   13.0692 C.ar    1  UNL1        0.0648
      4 C          63.6467   91.2028   12.1469 C.ar    1  UNL1        0.0160
      5 C          64.9949   91.7128   12.5618 C.ar    1  UNL1        0.0060
      6 C          65.5605   91.3357   13.8989 C.ar    1  UNL1        0.0552
      7 C          64.7778   90.4487   14.8212 C.ar    1  UNL1        0.0060
      8 C          63.4296   89.9388   14.4063 C.ar    1  UNL1        0.0160
      9 C          66.9088   91.8457   14.3138 C.ar    1  UNL1        0.2501
     10 N          68.1100   91.9853   13.4263 N.ar    1  UNL1       -0.1068
     11 N          69.2362   92.5315   14.2529 N.ar    1  UNL1       -0.1019
     12 C          68.7310   92.7295   15.6513 C.ar    1  UNL1        0.3059
     13 O          67.2926   92.3057   15.6889 O.2     1  UNL1       -0.4121
     14 O          60.3230   89.7081   10.9028 O.2     1  UNL1       -0.1499
     15 S          61.3966   88.8504   11.5042 S.O2    1  UNL1        0.0736
     16 O          62.4701   87.9927   12.1055 O.2     1  UNL1       -0.1499
     17 C          61.2775   87.8949   10.3540 C.ar    1  UNL1        0.1268
     18 C          60.0771   87.9479    9.4561 C.ar    1  UNL1        0.0316
     19 C          59.9579   86.9924    8.3060 C.ar    1  UNL1        0.0599
     20 CL         58.7575   87.0455    7.4081 Cl      1  UNL1       -0.0822
     21 C          61.0392   85.9839    8.0538 C.ar    1  UNL1        0.0229
     22 C          62.2396   85.9309    8.9516 C.ar    1  UNL1        0.0599
     23 CL         63.3209   84.9223    8.6994 Cl      1  UNL1       -0.0822
     24 C          62.3587   86.8863   10.1018 C.ar    1  UNL1        0.0316
@<TRIPOS>BOND
     1    14    15    2
     2    15    16    2
     3    15     1    1
     4     1     3    1
     5     3     4   ar
     6     4     5   ar
     7     5     6   ar
     8     6     9    1
     9     9    10   ar
    10    10    11   ar
    11    11    12   ar
    12    12    13   ar
    13     6     7   ar
    14     7     8   ar
    15    15    17    1
    16    17    18   ar
    17    18    19   ar
    18    19    20    1
    19    19    21   ar
    20    21    22   ar
    21    22    23    1
    22    22    24   ar
    23     8     3   ar
    24    24    17   ar
    25    13     9   ar
    26     1     2    1
@<TRIPOS>MOLECULE
*****
 24 26 0 0 0
SMALL
GASTEIGER

@<TRIPOS>ATOM
      1 N          61.5152   89.8344   12.6227 N.pl3   1  UNL1       -0.2150
      2 H          60.7075   90.1404   13.0951 H       1  UNL1        0.1737
      3 C          62.8652   90.3356   13.0429 C.ar    1  UNL1        0.0648
      4 C          63.4260   89.9491   14.3793 C.ar    1  UNL1        0.0160
      5 C          64.7759   90.4503   14.7995 C.ar    1  UNL1        0.0060
      6 C          65.5649   91.3380   13.8833 C.ar    1  UNL1        0.0552
      7 C          65.0040   91.7245   12.5469 C.ar    1  UNL1        0.0060
      8 C          63.6542   91.2233   12.1267 C.ar    1  UNL1        0.0160
      9 C          66.9148   91.8392   14.3035 C.ar    1  UNL1        0.2501
     10 N          68.1123   91.9983   13.4143 N.ar    1  UNL1       -0.1068
     11 N          69.2418   92.5267   14.2479 N.ar    1  UNL1       -0.1019
     12 C          68.7424   92.6942   15.6524 C.ar    1  UNL1        0.3059
     13 O          67.3043   92.2693   15.6868 O.2     1  UNL1       -0.4121
     14 O          62.4526   88.0032   12.1051 O.2     1  UNL1       -0.1499
     15 S          61.3959   88.8669   11.4827 S.O2    1  UNL1        0.0736
     16 O          60.3393   89.7305   10.8602 O.2     1  UNL1       -0.1499
     17 C          61.2766   87.8993   10.3426 C.ar    1  UNL1        0.1268
     18 C          62.3603   86.8915   10.0976 C.ar    1  UNL1        0.0316
     19 C          62.2410   85.9241    8.9576 C.ar    1  UNL1        0.0599
     20 CL         63.3247   84.9162    8.7127 Cl      1  UNL1       -0.0822
     21 C          61.0381   85.9644    8.0625 C.ar    1  UNL1        0.0229
     22 C          59.9544   86.9722    8.3074 C.ar    1  UNL1        0.0599
     23 CL         58.7514   87.0125    7.4122 Cl      1  UNL1       -0.0822
     24 C          60.0737   87.9397    9.4474 C.ar    1  UNL1        0.0316
@<TRIPOS>BOND
     1    14    15    2
     2    15    16    2
     3    15     1    1
     4     1     3    1
     5     3     4   ar
     6     4     5   ar
     7     5     6   ar
     8     6     9    1
     9     9    10   ar
    10    10    11   ar
    11    11    12   ar
    12    12    13   ar
    13     6     7   ar
    14     7     8   ar
    15    15    17    1
    16    17    18   ar
    17    18    19   ar
    18    19    20    1
    19    19    21   ar
    20    21    22   ar
    21    22    23    1
    22    22    24   ar
    23     8     3   ar
    24    24    17   ar
    25    13     9   ar
    26     1     2    1
@<TRIPOS>MOLECULE
*****
 24 26 0 0 0
SMALL
GASTEIGER

@<TRIPOS>ATOM
      1 N          62.2057   89.3713   12.3167 N.pl3   1  UNL1       -0.2150
      2 H          61.4842   89.5506   12.9621 H       1  UNL1        0.1737
      3 C          63.1465   90.4700   11.9193 C.ar    1  UNL1        0.0648
      4 C          64.0902   91.0515   12.9299 C.ar    1  UNL1        0.0160
      5 C          65.0309   92.1501   12.5324 C.ar    1  UNL1        0.0060
      6 C          65.0280   92.6672   11.1244 C.ar    1  UNL1        0.0552
      7 C          64.0843   92.0858   10.1138 C.ar    1  UNL1        0.0060
      8 C          63.1436   90.9872   10.5112 C.ar    1  UNL1        0.0160
      9 C          65.9688   93.7659   10.7270 C.ar    1  UNL1        0.2501
     10 N          67.3465   93.5855   10.1619 N.ar    1  UNL1       -0.1068
     11 N          67.9263   94.9459    9.9106 N.ar    1  UNL1       -0.1019
     12 C          66.9068   95.9671   10.3203 C.ar    1  UNL1        0.3059
     13 O          65.6970   95.2378   10.8248 O.2     1  UNL1       -0.4121
     14 O          63.4597   87.7069   12.7127 O.2     1  UNL1       -0.1499
     15 S          62.3642   87.9997   11.7308 S.O2    1  UNL1        0.0736
     16 O          61.2688   88.2924   10.7489 O.2     1  UNL1       -0.1499
     17 C          62.5228   86.6279   11.1449 C.ar    1  UNL1        0.1268
     18 C          62.5876   86.4509    9.6568 C.ar    1  UNL1        0.0316
     19 C          62.7461   85.0793    9.0708 C.ar    1  UNL1        0.0599
     20 CL         62.8109   84.9023    7.5827 Cl      1  UNL1       -0.0822
     21 C          62.8398   83.8846    9.9730 C.ar    1  UNL1        0.0229
     22 C          62.7750   84.0616   11.4611 C.ar    1  UNL1        0.0599
     23 CL         62.8687   82.8668   12.3633 Cl      1  UNL1       -0.0822
     24 C          62.6165   85.4332   12.0470 C.ar    1  UNL1        0.0316
@<TRIPOS>BOND
     1    14    15    2
     2    15    16    2
     3    15     1    1
     4     1     3    1
     5     3     4   ar
     6     4     5   ar
     7     5     6   ar
     8     6     9    1
     9     9    10   ar
    10    10    11   ar
    11    11    12   ar
    12    12    13   ar
    13     6     7   ar
    14     7     8   ar
    15    15    17    1
    16    17    18   ar
    17    18    19   ar
    18    19    20    1
    19    19    21   ar
    20    21    22   ar
    21    22    23    1
    22    22    24   ar
    23     8     3   ar
    24    24    17   ar
    25    13     9   ar
    26     1     2    1
@<TRIPOS>MOLECULE
*****
 24 26 0 0 0
SMALL
GASTEIGER

@<TRIPOS>ATOM
      1 N          63.6219   91.6393   12.7700 N.pl3   1  UNL1       -0.2150
      2 H          62.8594   92.1626   13.1076 H       1  UNL1        0.1737
      3 C          63.7179   90.1732   13.0725 C.ar    1  UNL1        0.0648
      4 C          63.1289   89.1715   12.1240 C.ar    1  UNL1        0.0160
      5 C          63.2250   87.7055   12.4265 C.ar    1  UNL1        0.0060
      6 C          63.9101   87.2412   13.6775 C.ar    1  UNL1        0.0552
      7 C          64.4991   88.2428   14.6260 C.ar    1  UNL1        0.0060
      8 C          64.4030   89.7088   14.3235 C.ar    1  UNL1        0.0160
      9 C          64.0061   85.7751   13.9800 C.ar    1  UNL1        0.2501
     10 N          64.1889   85.1652   15.3382 N.ar    1  UNL1       -0.1068
     11 N          64.2320   83.6747   15.1750 N.ar    1  UNL1       -0.1019
     12 C          64.0758   83.3634   13.7160 C.ar    1  UNL1        0.3059
     13 O          63.9361   84.6615   12.9774 O.2     1  UNL1       -0.4121
     14 O          63.9924   91.8792   10.6951 O.2     1  UNL1       -0.1499
     15 S          64.6876   92.3079   11.9532 S.O2    1  UNL1        0.0736
     16 O          65.3828   92.7367   13.2113 O.2     1  UNL1       -0.1499
     17 C          65.7534   92.9766   11.1364 C.ar    1  UNL1        0.1268
     18 C          66.7614   92.1484   10.3963 C.ar    1  UNL1        0.0316
     19 C          67.8271   92.8170    9.5795 C.ar    1  UNL1        0.0599
     20 CL         68.8352   91.9887    8.8394 Cl      1  UNL1       -0.0822
     21 C          67.8848   94.3139    9.5029 C.ar    1  UNL1        0.0229
     22 C          66.8767   95.1422   10.2431 C.ar    1  UNL1        0.0599
     23 CL         66.9345   96.6391   10.1664 Cl      1  UNL1       -0.0822
     24 C          65.8110   94.4735   11.0598 C.ar    1  UNL1        0.0316
@<TRIPOS>BOND
     1    14    15    2
     2    15    16    2
     3    15     1    1
     4     1     3    1
     5     3     4   ar
     6     4     5   ar
     7     5     6   ar
     8     6     9    1
     9     9    10   ar
    10    10    11   ar
    11    11    12   ar
    12    12    13   ar
    13     6     7   ar
    14     7     8   ar
    15    15    17    1
    16    17    18   ar
    17    18    19   ar
    18    19    20    1
    19    19    21   ar
    20    21    22   ar
    21    22    23    1
    22    22    24   ar
    23     8     3   ar
    24    24    17   ar
    25    13     9   ar
    26     1     2    1
@<TRIPOS>MOLECULE
*****
 24 26 0 0 0
SMALL
GASTEIGER

@<TRIPOS>ATOM
      1 N          62.1561   89.2981   12.2852 N.pl3   1  UNL1       -0.2150
      2 H          61.4252   89.4679   12.9225 H       1  UNL1        0.1737
      3 C          63.0882   90.4084   11.8997 C.ar    1  UNL1        0.0648
      4 C          63.0777   90.9440   10.4987 C.ar    1  UNL1        0.0160
      5 C          64.0098   92.0542   10.1133 C.ar    1  UNL1        0.0060
      6 C          64.9523   92.6289   11.1289 C.ar    1  UNL1        0.0552
      7 C          64.9628   92.0933   12.5299 C.ar    1  UNL1        0.0060
      8 C          64.0307   90.9830   12.9153 C.ar    1  UNL1        0.0160
      9 C          65.8844   93.7392   10.7434 C.ar    1  UNL1        0.2501
     10 N          67.2576   93.5758   10.1622 N.ar    1  UNL1       -0.1068
     11 N          67.8288   94.9433    9.9310 N.ar    1  UNL1       -0.1019
     12 C          66.8086   95.9519   10.3692 C.ar    1  UNL1        0.3059
     13 O          65.6069   95.2077   10.8713 O.2     1  UNL1       -0.4121
     14 O          63.4163   87.6435   12.7024 O.2     1  UNL1       -0.1499
     15 S          62.3378   87.9291   11.6998 S.O2    1  UNL1        0.0736
     16 O          61.2592   88.2147   10.6973 O.2     1  UNL1       -0.1499
     17 C          62.5194   86.5600   11.1143 C.ar    1  UNL1        0.1268
     18 C          62.6392   85.3681   12.0171 C.ar    1  UNL1        0.0316
     19 C          62.8208   83.9991   11.4317 C.ar    1  UNL1        0.0599
     20 CL         62.9407   82.8072   12.3345 Cl      1  UNL1       -0.0822
     21 C          62.8826   83.8219    9.9435 C.ar    1  UNL1        0.0229
     22 C          62.7628   85.0138    9.0407 C.ar    1  UNL1        0.0599
     23 CL         62.8246   84.8366    7.5525 Cl      1  UNL1       -0.0822
     24 C          62.5812   86.3829    9.6261 C.ar    1  UNL1        0.0316
@<TRIPOS>BOND
     1    14    15    2
     2    15    16    2
     3    15     1    1
     4     1     3    1
     5     3     4   ar
     6     4     5   ar
     7     5     6   ar
     8     6     9    1
     9     9    10   ar
    10    10    11   ar
    11    11    12   ar
    12    12    13   ar
    13     6     7   ar
    14     7     8   ar
    15    15    17    1
    16    17    18   ar
    17    18    19   ar
    18    19    20    1
    19    19    21   ar
    20    21    22   ar
    21    22    23    1
    22    22    24   ar
    23     8     3   ar
    24    24    17   ar
    25    13     9   ar
    26     1     2    1
@<TRIPOS>MOLECULE
*****
 24 26 0 0 0
SMALL
GASTEIGER

@<TRIPOS>ATOM
      1 N          62.9311   85.7476   16.3125 N.pl3   1  UNL1       -0.2150
      2 H          62.6139   85.6014   17.2330 H       1  UNL1        0.1737
      3 C          63.4468   87.0950   15.9020 C.ar    1  UNL1        0.0648
      4 C          63.1309   88.3038   16.7320 C.ar    1  UNL1        0.0160
      5 C          63.6466   89.6511   16.3214 C.ar    1  UNL1        0.0060
      6 C          64.4782   89.7897   15.0808 C.ar    1  UNL1        0.0552
      7 C          64.7940   88.5810   14.2507 C.ar    1  UNL1        0.0060
      8 C          64.2784   87.2336   14.6613 C.ar    1  UNL1        0.0160
      9 C          64.9939   91.1372   14.6702 C.ar    1  UNL1        0.2501
     10 N          65.2970   92.2829   15.5897 N.ar    1  UNL1       -0.1068
     11 N          65.7875   93.4293   14.7559 N.ar    1  UNL1       -0.1019
     12 C          65.7874   92.9921   13.3210 C.ar    1  UNL1        0.3059
     13 O          65.2969   91.5755   13.2681 O.2     1  UNL1       -0.4121
     14 O          61.4240   84.8272   15.1371 O.2     1  UNL1       -0.1499
     15 S          62.8986   84.6228   15.3207 S.O2    1  UNL1        0.0736
     16 O          64.3732   84.4184   15.5042 O.2     1  UNL1       -0.1499
     17 C          62.8662   83.4980   14.3287 C.ar    1  UNL1        0.1268
     18 C          62.0324   82.2813   14.6015 C.ar    1  UNL1        0.0316
     19 C          62.0000   81.1566   13.6097 C.ar    1  UNL1        0.0599
     20 CL         61.1661   79.9399   13.8824 Cl      1  UNL1       -0.0822
     21 C          62.8014   81.2485   12.3451 C.ar    1  UNL1        0.0229
     22 C          63.6352   82.4651   12.0723 C.ar    1  UNL1        0.0599
     23 CL         64.4367   82.5570   10.8077 Cl      1  UNL1       -0.0822
     24 C          63.6677   83.5899   13.0642 C.ar    1  UNL1        0.0316
@<TRIPOS>BOND
     1    14    15    2
     2    15    16    2
     3    15     1    1
     4     1     3    1
     5     3     4   ar
     6     4     5   ar
     7     5     6   ar
     8     6     9    1
     9     9    10   ar
    10    10    11   ar
    11    11    12   ar
    12    12    13   ar
    13     6     7   ar
    14     7     8   ar
    15    15    17    1
    16    17    18   ar
    17    18    19   ar
    18    19    20    1
    19    19    21   ar
    20    21    22   ar
    21    22    23    1
    22    22    24   ar
    23     8     3   ar
    24    24    17   ar
    25    13     9   ar
    26     1     2    1
@<TRIPOS>MOLECULE
*****
 24 26 0 0 0
SMALL
GASTEIGER

@<TRIPOS>ATOM
      1 N          62.9318   85.7849   16.3023 N.pl3   1  UNL1       -0.2150
      2 H          62.6074   85.6462   17.2214 H       1  UNL1        0.1737
      3 C          63.4538   87.1282   15.8859 C.ar    1  UNL1        0.0648
      4 C          64.2914   87.2566   14.6483 C.ar    1  UNL1        0.0160
      5 C          64.8134   88.5998   14.2320 C.ar    1  UNL1        0.0060
      6 C          64.4977   89.8145   15.0533 C.ar    1  UNL1        0.0552
      7 C          63.6601   89.6861   16.2910 C.ar    1  UNL1        0.0060
      8 C          63.1382   88.3430   16.7073 C.ar    1  UNL1        0.0160
      9 C          65.0197   91.1578   14.6369 C.ar    1  UNL1        0.2501
     10 N          65.3295   92.3055   15.5517 N.ar    1  UNL1       -0.1068
     11 N          65.8248   93.4462   14.7129 N.ar    1  UNL1       -0.1019
     12 C          65.8211   93.0034   13.2797 C.ar    1  UNL1        0.3059
     13 O          65.3236   91.5891   13.2328 O.2     1  UNL1       -0.4121
     14 O          64.3845   84.4751   15.4814 O.2     1  UNL1       -0.1499
     15 S          62.9041   84.6531   15.3183 S.O2    1  UNL1        0.0736
     16 O          61.4237   84.8311   15.1553 O.2     1  UNL1       -0.1499
     17 C          62.8763   83.5213   14.3343 C.ar    1  UNL1        0.1268
     18 C          63.6905   83.6005   13.0770 C.ar    1  UNL1        0.0316
     19 C          63.6628   82.4687   12.0930 C.ar    1  UNL1        0.0599
     20 CL         64.4770   82.5479   10.8357 Cl      1  UNL1       -0.0822
     21 C          62.8208   81.2578   12.3663 C.ar    1  UNL1        0.0229
     22 C          62.0067   81.1786   13.6236 C.ar    1  UNL1        0.0599
     23 CL         61.1647   79.9676   13.8968 Cl      1  UNL1       -0.0822
     24 C          62.0344   82.3104   14.6076 C.ar    1  UNL1        0.0316
@<TRIPOS>BOND
     1    14    15    2
     2    15    16    2
     3    15     1    1
     4     1     3    1
     5     3     4   ar
     6     4     5   ar
     7     5     6   ar
     8     6     9    1
     9     9    10   ar
    10    10    11   ar
    11    11    12   ar
    12    12    13   ar
    13     6     7   ar
    14     7     8   ar
    15    15    17    1
    16    17    18   ar
    17    18    19   ar
    18    19    20    1
    19    19    21   ar
    20    21    22   ar
    21    22    23    1
    22    22    24   ar
    23     8     3   ar
    24    24    17   ar
    25    13     9   ar
    26     1     2    1
@<TRIPOS>MOLECULE
*****
 24 26 0 0 0
SMALL
GASTEIGER

@<TRIPOS>ATOM
      1 N          61.6172   89.6347   12.3559 N.pl3   1  UNL1       -0.2150
      2 H          60.8301   89.7410   12.9378 H       1  UNL1        0.1737
      3 C          61.5809   88.6606   11.2157 C.ar    1  UNL1        0.0648
      4 C          60.7161   88.9358   10.0215 C.ar    1  UNL1        0.0160
      5 C          60.6798   87.9618    8.8813 C.ar    1  UNL1        0.0060
      6 C          61.5084   86.7126    8.9355 C.ar    1  UNL1        0.0552
      7 C          62.3732   86.4374   10.1298 C.ar    1  UNL1        0.0060
      8 C          62.4094   87.4114   11.2699 C.ar    1  UNL1        0.0160
      9 C          61.4721   85.7385    7.7953 C.ar    1  UNL1        0.2501
     10 N          60.2448   85.2855    7.0614 N.ar    1  UNL1       -0.1068
     11 N          60.6709   84.3135    6.0014 N.ar    1  UNL1       -0.1019
     12 C          62.1616   84.1658    6.0802 C.ar    1  UNL1        0.3059
     13 O          62.6567   85.0465    7.1889 O.2     1  UNL1       -0.4121
     14 O          62.9615   89.8523   13.9824 O.2     1  UNL1       -0.1499
     15 S          62.8525   90.4468   12.6095 S.O2    1  UNL1        0.0736
     16 O          62.7436   91.0413   11.2367 O.2     1  UNL1       -0.1499
     17 C          64.0879   91.2590   12.8632 C.ar    1  UNL1        0.1268
     18 C          64.7677   91.9648   11.7275 C.ar    1  UNL1        0.0316
     19 C          66.0030   92.7769   11.9810 C.ar    1  UNL1        0.0599
     20 CL         66.6827   93.4828   10.8454 Cl      1  UNL1       -0.0822
     21 C          66.5586   92.8832   13.3702 C.ar    1  UNL1        0.0229
     22 C          65.8789   92.1773   14.5059 C.ar    1  UNL1        0.0599
     23 CL         66.4346   92.2836   15.8952 Cl      1  UNL1       -0.0822
     24 C          64.6435   91.3652   14.2524 C.ar    1  UNL1        0.0316
@<TRIPOS>BOND
     1    14    15    2
     2    15    16    2
     3    15     1    1
     4     1     3    1
     5     3     4   ar
     6     4     5   ar
     7     5     6   ar
     8     6     9    1
     9     9    10   ar
    10    10    11   ar
    11    11    12   ar
    12    12    13   ar
    13     6     7   ar
    14     7     8   ar
    15    15    17    1
    16    17    18   ar
    17    18    19   ar
    18    19    20    1
    19    19    21   ar
    20    21    22   ar
    21    22    23    1
    22    22    24   ar
    23     8     3   ar
    24    24    17   ar
    25    13     9   ar
    26     1     2    1
@<TRIPOS>MOLECULE
*****
 24 26 0 0 0
SMALL
GASTEIGER

@<TRIPOS>ATOM
      1 N          61.6643   87.8850   11.4552 N.pl3   1  UNL1       -0.2150
      2 H          60.7149   87.9643   11.2071 H       1  UNL1        0.1737
      3 C          62.5270   89.1104   11.5216 C.ar    1  UNL1        0.0648
      4 C          62.7525   89.9364   10.2900 C.ar    1  UNL1        0.0160
      5 C          63.6152   91.1617   10.3564 C.ar    1  UNL1        0.0060
      6 C          64.2523   91.5610   11.6544 C.ar    1  UNL1        0.0552
      7 C          64.0268   90.7349   12.8859 C.ar    1  UNL1        0.0060
      8 C          63.1641   89.5097   12.8195 C.ar    1  UNL1        0.0160
      9 C          65.1150   92.7863   11.7208 C.ar    1  UNL1        0.2501
     10 N          65.7842   93.3280   12.9491 N.ar    1  UNL1       -0.1068
     11 N          66.5427   94.5615   12.5580 N.ar    1  UNL1       -0.1019
     12 C          66.3423   94.7823   11.0879 C.ar    1  UNL1        0.3059
     13 O          65.4599   93.6851   10.5705 O.2     1  UNL1       -0.4121
     14 O          63.2278   87.1809   12.7040 O.2     1  UNL1       -0.1499
     15 S          62.2482   86.5390   11.7669 S.O2    1  UNL1        0.0736
     16 O          61.2686   85.8971   10.8297 O.2     1  UNL1       -0.1499
     17 C          62.8320   85.1928   12.0785 C.ar    1  UNL1        0.1268
     18 C          63.2495   84.8629   13.4810 C.ar    1  UNL1        0.0316
     19 C          63.8333   83.5168   13.7927 C.ar    1  UNL1        0.0599
     20 CL         64.2508   83.1869   15.1951 Cl      1  UNL1       -0.0822
     21 C          63.9997   82.5007   12.7019 C.ar    1  UNL1        0.0229
     22 C          63.5822   82.8307   11.2995 C.ar    1  UNL1        0.0599
     23 CL         63.7486   81.8145   10.2087 Cl      1  UNL1       -0.0822
     24 C          62.9984   84.1767   10.9878 C.ar    1  UNL1        0.0316
@<TRIPOS>BOND
     1    14    15    2
     2    15    16    2
     3    15     1    1
     4     1     3    1
     5     3     4   ar
     6     4     5   ar
     7     5     6   ar
     8     6     9    1
     9     9    10   ar
    10    10    11   ar
    11    11    12   ar
    12    12    13   ar
    13     6     7   ar
    14     7     8   ar
    15    15    17    1
    16    17    18   ar
    17    18    19   ar
    18    19    20    1
    19    19    21   ar
    20    21    22   ar
    21    22    23    1
    22    22    24   ar
    23     8     3   ar
    24    24    17   ar
    25    13     9   ar
    26     1     2    1
