@<TRIPOS>MOLECULE
*****
 32 36 0 0 0
SMALL
GASTEIGER

@<TRIPOS>ATOM
      1 C          64.9033   90.4279   14.0733 C.3     1  UNL1        0.0182
      2 C          64.0519   89.4928   13.2667 C.3     1  UNL1        0.0053
      3 C          63.2698   88.3519   12.6864 C.3     1  UNL1        0.0436
      4 C          63.4230   87.1725   13.6005 C.3     1  UNL1        0.1659
      5 C          64.2998   87.5845   14.7457 C.3     1  UNL1        0.0436
      6 C          64.6885   89.0185   14.5394 C.3     1  UNL1        0.0053
      7 C          65.5188   91.7816   14.2699 C.3     1  UNL1        0.0718
      8 N          65.5381   92.7680   13.1400 N.am    1  UNL1       -0.3025
      9 C          66.7446   92.8709   12.2547 C.2     1  UNL1        0.2458
     10 O          67.9318   91.9873   12.4993 O.2     1  UNL1       -0.2701
     11 H          64.7588   93.3479   12.9795 H       1  UNL1        0.1497
     12 C          66.7638   93.8572   11.1248 C.ar    1  UNL1        0.0534
     13 C          66.1578   95.2173   11.3061 C.ar    1  UNL1        0.0054
     14 C          66.1770   96.2037   10.1762 C.ar    1  UNL1        0.0115
     15 C          66.8024   95.8300    8.8649 C.ar    1  UNL1        0.0577
     16 CL         66.8217   96.8164    7.7351 Cl      1  UNL1       -0.0822
     17 C          67.4085   94.4699    8.6836 C.ar    1  UNL1        0.0115
     18 C          67.3892   93.4835    9.8136 C.ar    1  UNL1        0.0054
     19 C          67.2881   93.0817   15.6589 C.3     1  UNL1        0.0017
     20 C          66.1151   92.1488   15.5963 C.3     1  UNL1        0.0196
     21 O          62.8074   85.8188   13.4039 O.3     1  UNL1       -0.4791
     22 C          63.3616   84.8862   12.3678 C.ar    1  UNL1        0.1413
     23 C          64.3224   83.8061   12.7681 C.ar    1  UNL1        0.0575
     24 C          64.8765   82.8736   11.7321 C.ar    1  UNL1        0.1019
     25 N          64.4698   83.0212   10.2958 N.ar    1  UNL1       -0.2436
     26 C          63.5090   84.1013    9.8956 C.ar    1  UNL1        0.0865
     27 C          63.1023   84.2489    8.4593 C.ar    1  UNL1        0.0488
     28 C          62.1415   85.3289    8.0591 C.ar    1  UNL1        0.1416
     29 F          61.7348   85.4765    6.6228 F       1  UNL1       -0.2041
     30 C          61.5873   86.2615    9.0951 C.ar    1  UNL1        0.0298
     31 C          61.9940   86.1140   10.5314 C.ar    1  UNL1        0.0068
     32 C          62.9549   85.0338   10.9316 C.ar    1  UNL1        0.0518
@<TRIPOS>BOND
     1    19    20    1
     2    20     7    1
     3     7     8    1
     4     8     9   am
     5     9    10    2
     6     9    12    1
     7    12    13   ar
     8    13    14   ar
     9    14    15   ar
    10    15    16    1
    11    15    17   ar
    12    17    18   ar
    13     1     7    1
    14     1     2    1
    15     2     3    1
    16     3     4    1
    17     4    21    1
    18    21    22    1
    19    22    23   ar
    20    23    24   ar
    21    24    25   ar
    22    25    26   ar
    23    26    27   ar
    24    27    28   ar
    25    28    29    1
    26    28    30   ar
    27    30    31   ar
    28    31    32   ar
    29     4     5    1
    30     6     5    1
    31    18    12   ar
    32     6     1    1
    33     6     2    1
    34    32    22   ar
    35    32    26   ar
    36     8    11    1
@<TRIPOS>MOLECULE
*****
 32 36 0 0 0
SMALL
GASTEIGER

@<TRIPOS>ATOM
      1 C          62.6197   89.2508   11.4733 C.3     1  UNL1        0.0182
      2 C          63.4423   89.9940   12.4837 C.3     1  UNL1        0.0053
      3 C          64.2994   90.9468   13.2632 C.3     1  UNL1        0.0436
      4 C          64.6359   92.1043   12.3705 C.3     1  UNL1        0.1659
      5 C          63.9868   91.8669   11.0392 C.3     1  UNL1        0.0436
      6 C          63.2491   90.5627   11.1092 C.3     1  UNL1        0.0053
      7 C          61.7813   88.0642   11.1003 C.3     1  UNL1        0.0718
      8 N          61.9646   86.7605   11.8193 N.am    1  UNL1       -0.3025
      9 C          62.4299   85.5486   11.0678 C.2     1  UNL1        0.2458
     10 O          62.7119   85.6403    9.5974 O.2     1  UNL1       -0.2701
     11 H          61.7795   86.7003   12.7844 H       1  UNL1        0.1497
     12 C          62.6132   84.2449   11.7867 C.ar    1  UNL1        0.0534
     13 C          62.5563   84.2002   13.2850 C.ar    1  UNL1        0.0054
     14 C          62.7396   82.8965   14.0039 C.ar    1  UNL1        0.0115
     15 C          62.9799   81.6376   13.2245 C.ar    1  UNL1        0.0577
     16 CL         63.1632   80.3339   13.9434 Cl      1  UNL1       -0.0822
     17 C          63.0369   81.6823   11.7263 C.ar    1  UNL1        0.0115
     18 C          62.8535   82.9861   11.0074 C.ar    1  UNL1        0.0054
     19 C          60.2216   89.5282    9.6259 C.3     1  UNL1        0.0017
     20 C          60.7596   88.1813   10.0083 C.3     1  UNL1        0.0196
     21 O          65.4743   93.2908   12.7435 O.3     1  UNL1       -0.4791
     22 C          66.0633   94.1597   11.6719 C.ar    1  UNL1        0.1413
     23 C          65.7332   95.6222   11.6264 C.ar    1  UNL1        0.0575
     24 C          66.3222   96.4909   10.5548 C.ar    1  UNL1        0.1019
     25 N          67.2413   95.8972    9.5288 N.ar    1  UNL1       -0.2436
     26 C          67.5715   94.4347    9.5744 C.ar    1  UNL1        0.0865
     27 C          68.4906   93.8410    8.5484 C.ar    1  UNL1        0.0488
     28 C          68.8208   92.3785    8.5940 C.ar    1  UNL1        0.1416
     29 F          69.7399   91.7848    7.5680 F       1  UNL1       -0.2041
     30 C          68.2317   91.5097    9.6656 C.ar    1  UNL1        0.0298
     31 C          67.3126   92.1034   10.6916 C.ar    1  UNL1        0.0068
     32 C          66.9825   93.5660   10.6459 C.ar    1  UNL1        0.0518
@<TRIPOS>BOND
     1    19    20    1
     2    20     7    1
     3     7     8    1
     4     8     9   am
     5     9    10    2
     6     9    12    1
     7    12    13   ar
     8    13    14   ar
     9    14    15   ar
    10    15    16    1
    11    15    17   ar
    12    17    18   ar
    13     1     7    1
    14     1     2    1
    15     2     3    1
    16     3     4    1
    17     4    21    1
    18    21    22    1
    19    22    23   ar
    20    23    24   ar
    21    24    25   ar
    22    25    26   ar
    23    26    27   ar
    24    27    28   ar
    25    28    29    1
    26    28    30   ar
    27    30    31   ar
    28    31    32   ar
    29     4     5    1
    30     6     5    1
    31    18    12   ar
    32     6     1    1
    33     6     2    1
    34    32    22   ar
    35    32    26   ar
    36     8    11    1
@<TRIPOS>MOLECULE
*****
 32 36 0 0 0
SMALL
GASTEIGER

@<TRIPOS>ATOM
      1 C          61.7384   88.3354   10.6440 C.3     1  UNL1        0.0182
      2 C          62.6055   89.1655   11.5433 C.3     1  UNL1        0.0053
      3 C          63.4842   90.1905   12.1972 C.3     1  UNL1        0.0436
      4 C          63.7205   91.2956   11.2108 C.3     1  UNL1        0.1659
      5 C          62.9878   90.9536    9.9474 C.3     1  UNL1        0.0436
      6 C          62.2988   89.6372   10.1529 C.3     1  UNL1        0.0053
      7 C          60.9142   87.1045   10.4083 C.3     1  UNL1        0.0718
      8 N          61.1655   85.8671   11.2182 N.am    1  UNL1       -0.3025
      9 C          62.2564   84.9182   10.8190 C.2     1  UNL1        0.2458
     10 O          63.0959   85.2065    9.6098 O.2     1  UNL1       -0.2701
     11 H          60.6145   85.6779   12.0119 H       1  UNL1        0.1497
     12 C          62.5078   83.6809   11.6288 C.ar    1  UNL1        0.0534
     13 C          62.8031   82.3812   10.9407 C.ar    1  UNL1        0.0054
     14 C          63.0544   81.1439   11.7505 C.ar    1  UNL1        0.0115
     15 C          63.0105   81.2063   13.2486 C.ar    1  UNL1        0.0577
     16 CL         63.2618   79.9690   14.0585 Cl      1  UNL1       -0.0822
     17 C          62.7152   82.5060   13.9368 C.ar    1  UNL1        0.0115
     18 C          62.4638   83.7433   13.1269 C.ar    1  UNL1        0.0054
     19 C          60.0390   86.3660    8.0762 C.3     1  UNL1        0.0017
     20 C          59.8387   87.1109    9.3628 C.3     1  UNL1        0.0196
     21 O          64.5447   92.5265   11.4465 O.3     1  UNL1       -0.4791
     22 C          66.0298   92.4120   11.6241 C.ar    1  UNL1        0.1413
     23 C          66.9283   92.3776   10.4236 C.ar    1  UNL1        0.0575
     24 C          68.4133   92.2632   10.6013 C.ar    1  UNL1        0.1019
     25 N          68.9998   92.1831   11.9796 N.ar    1  UNL1       -0.2436
     26 C          68.1013   92.2175   13.1801 C.ar    1  UNL1        0.0865
     27 C          68.6877   92.1374   14.5584 C.ar    1  UNL1        0.0488
     28 C          67.7892   92.1718   15.7590 C.ar    1  UNL1        0.1416
     29 F          68.3757   92.0917   17.1373 F       1  UNL1       -0.2041
     30 C          66.3041   92.2862   15.5813 C.ar    1  UNL1        0.0298
     31 C          65.7176   92.3663   14.2030 C.ar    1  UNL1        0.0068
     32 C          66.6163   92.3319   13.0024 C.ar    1  UNL1        0.0518
@<TRIPOS>BOND
     1    19    20    1
     2    20     7    1
     3     7     8    1
     4     8     9   am
     5     9    10    2
     6     9    12    1
     7    12    13   ar
     8    13    14   ar
     9    14    15   ar
    10    15    16    1
    11    15    17   ar
    12    17    18   ar
    13     1     7    1
    14     1     2    1
    15     2     3    1
    16     3     4    1
    17     4    21    1
    18    21    22    1
    19    22    23   ar
    20    23    24   ar
    21    24    25   ar
    22    25    26   ar
    23    26    27   ar
    24    27    28   ar
    25    28    29    1
    26    28    30   ar
    27    30    31   ar
    28    31    32   ar
    29     4     5    1
    30     6     5    1
    31    18    12   ar
    32     6     1    1
    33     6     2    1
    34    32    22   ar
    35    32    26   ar
    36     8    11    1
@<TRIPOS>MOLECULE
*****
 32 36 0 0 0
SMALL
GASTEIGER

@<TRIPOS>ATOM
      1 C          62.0103   88.5401   11.1476 C.3     1  UNL1        0.0182
      2 C          62.5259   89.8945   10.7607 C.3     1  UNL1        0.0053
      3 C          63.2119   91.2226   10.6359 C.3     1  UNL1        0.0436
      4 C          64.1341   91.3801   11.8084 C.3     1  UNL1        0.1659
      5 C          64.0181   90.1493   12.6578 C.3     1  UNL1        0.0436
      6 C          63.0242   89.2311   12.0104 C.3     1  UNL1        0.0053
      7 C          61.1272   87.3592   10.8729 C.3     1  UNL1        0.0718
      8 N          61.3402   86.0742   11.6168 N.am    1  UNL1       -0.3025
      9 C          62.2854   85.0424   11.0763 C.2     1  UNL1        0.2458
     10 O          63.0175   85.2957    9.7917 O.2     1  UNL1       -0.2701
     11 H          60.8597   85.9079   12.4598 H       1  UNL1        0.1497
     12 C          62.4984   83.7575   11.8201 C.ar    1  UNL1        0.0534
     13 C          62.7154   82.4802   11.0641 C.ar    1  UNL1        0.0054
     14 C          62.9284   81.1953   11.8079 C.ar    1  UNL1        0.0115
     15 C          62.9245   81.1875   13.3080 C.ar    1  UNL1        0.0577
     16 CL         63.1376   79.9025   14.0519 Cl      1  UNL1       -0.0822
     17 C          62.7076   82.4647   14.0640 C.ar    1  UNL1        0.0115
     18 C          62.4945   83.7497   13.3201 C.ar    1  UNL1        0.0054
     19 C          59.9757   88.6434    8.9300 C.3     1  UNL1        0.0017
     20 C          60.0311   87.4632    9.8542 C.3     1  UNL1        0.0196
     21 O          65.0172   92.5610   12.0831 O.3     1  UNL1       -0.4791
     22 C          66.3301   92.6977   11.3704 C.ar    1  UNL1        0.1413
     23 C          67.4740   91.7950   11.7260 C.ar    1  UNL1        0.0575
     24 C          68.7868   91.9317   11.0133 C.ar    1  UNL1        0.1019
     25 N          68.9556   92.9711    9.9451 N.ar    1  UNL1       -0.2436
     26 C          67.8116   93.8739    9.5896 C.ar    1  UNL1        0.0865
     27 C          67.9805   94.9133    8.5214 C.ar    1  UNL1        0.0488
     28 C          66.8365   95.8160    8.1658 C.ar    1  UNL1        0.1416
     29 F          67.0054   96.8555    7.0976 F       1  UNL1       -0.2041
     30 C          65.5237   95.6794    8.8785 C.ar    1  UNL1        0.0298
     31 C          65.3549   94.6399    9.9467 C.ar    1  UNL1        0.0068
     32 C          66.4989   93.7372   10.3022 C.ar    1  UNL1        0.0518
@<TRIPOS>BOND
     1    19    20    1
     2    20     7    1
     3     7     8    1
     4     8     9   am
     5     9    10    2
     6     9    12    1
     7    12    13   ar
     8    13    14   ar
     9    14    15   ar
    10    15    16    1
    11    15    17   ar
    12    17    18   ar
    13     1     7    1
    14     1     2    1
    15     2     3    1
    16     3     4    1
    17     4    21    1
    18    21    22    1
    19    22    23   ar
    20    23    24   ar
    21    24    25   ar
    22    25    26   ar
    23    26    27   ar
    24    27    28   ar
    25    28    29    1
    26    28    30   ar
    27    30    31   ar
    28    31    32   ar
    29     4     5    1
    30     6     5    1
    31    18    12   ar
    32     6     1    1
    33     6     2    1
    34    32    22   ar
    35    32    26   ar
    36     8    11    1
@<TRIPOS>MOLECULE
*****
 32 36 0 0 0
SMALL
GASTEIGER

@<TRIPOS>ATOM
      1 C          59.9287   92.4203    3.4386 C.3     1  UNL1        0.0182
      2 C          58.8600   91.8805    4.3421 C.3     1  UNL1        0.0053
      3 C          58.0259   91.1729    5.3685 C.3     1  UNL1        0.0436
      4 C          58.9249   90.2570    6.1450 C.3     1  UNL1        0.1659
      5 C          60.3146   90.3986    5.5985 C.3     1  UNL1        0.0436
      6 C          60.2745   91.4020    4.4842 C.3     1  UNL1        0.0053
      7 C          60.3461   93.3199    2.3131 C.3     1  UNL1        0.0718
      8 N          59.3090   93.9383    1.4232 N.am    1  UNL1       -0.3025
      9 C          58.9006   93.2483    0.1555 C.2     1  UNL1        0.2458
     10 O          59.5294   91.9399   -0.2223 O.2     1  UNL1       -0.2701
     11 H          58.8963   94.7971    1.6712 H       1  UNL1        0.1497
     12 C          57.8635   93.8667   -0.7345 C.ar    1  UNL1        0.0534
     13 C          57.8698   95.3469   -0.9773 C.ar    1  UNL1        0.0054
     14 C          56.8327   95.9653   -1.8673 C.ar    1  UNL1        0.0115
     15 C          55.7893   95.1035   -2.5144 C.ar    1  UNL1        0.0577
     16 CL         54.7522   95.7219   -3.4043 Cl      1  UNL1       -0.0822
     17 C          55.7831   93.6233   -2.2715 C.ar    1  UNL1        0.0115
     18 C          56.8202   93.0049   -1.3815 C.ar    1  UNL1        0.0054
     19 C          62.7706   92.4656    1.9361 C.3     1  UNL1        0.0017
     20 C          61.8006   93.6010    2.0777 C.3     1  UNL1        0.0196
     21 O          58.5075   89.3574    7.2704 O.3     1  UNL1       -0.4791
     22 C          59.4387   88.2886    7.7611 C.ar    1  UNL1        0.1413
     23 C          59.3937   86.9179    7.1537 C.ar    1  UNL1        0.0575
     24 C          60.3248   85.8492    7.6444 C.ar    1  UNL1        0.1019
     25 N          61.3010   86.1512    8.7425 N.ar    1  UNL1       -0.2436
     26 C          61.3460   87.5220    9.3500 C.ar    1  UNL1        0.0865
     27 C          62.3221   87.8240   10.4481 C.ar    1  UNL1        0.0488
     28 C          62.3671   89.1947   11.0555 C.ar    1  UNL1        0.1416
     29 F          63.3433   89.4968   12.1537 F       1  UNL1       -0.2041
     30 C          61.4360   90.2635   10.5648 C.ar    1  UNL1        0.0298
     31 C          60.4598   89.9615    9.4667 C.ar    1  UNL1        0.0068
     32 C          60.4148   88.5906    8.8593 C.ar    1  UNL1        0.0518
@<TRIPOS>BOND
     1    19    20    1
     2    20     7    1
     3     7     8    1
     4     8     9   am
     5     9    10    2
     6     9    12    1
     7    12    13   ar
     8    13    14   ar
     9    14    15   ar
    10    15    16    1
    11    15    17   ar
    12    17    18   ar
    13     1     7    1
    14     1     2    1
    15     2     3    1
    16     3     4    1
    17     4    21    1
    18    21    22    1
    19    22    23   ar
    20    23    24   ar
    21    24    25   ar
    22    25    26   ar
    23    26    27   ar
    24    27    28   ar
    25    28    29    1
    26    28    30   ar
    27    30    31   ar
    28    31    32   ar
    29     4     5    1
    30     6     5    1
    31    18    12   ar
    32     6     1    1
    33     6     2    1
    34    32    22   ar
    35    32    26   ar
    36     8    11    1
@<TRIPOS>MOLECULE
*****
 32 36 0 0 0
SMALL
GASTEIGER

@<TRIPOS>ATOM
      1 C          63.4331   87.5192   16.0360 C.3     1  UNL1        0.0182
      2 C          63.4078   89.0107   16.1932 C.3     1  UNL1        0.0053
      3 C          63.6012   90.4966   16.1256 C.3     1  UNL1        0.0436
      4 C          64.6415   90.7818   15.0833 C.3     1  UNL1        0.1659
      5 C          65.0912   89.4721   14.5068 C.3     1  UNL1        0.0436
      6 C          64.3287   88.3775   15.1927 C.3     1  UNL1        0.0053
      7 C          62.9306   86.1625   16.4322 C.3     1  UNL1        0.0718
      8 N          62.6950   85.1147   15.3849 N.am    1  UNL1       -0.3025
      9 C          63.8440   84.5935   14.5737 C.2     1  UNL1        0.2458
     10 O          65.2286   85.1200   14.8097 O.2     1  UNL1       -0.2701
     11 H          61.7862   84.7692   15.2300 H       1  UNL1        0.1497
     12 C          63.6084   83.5458   13.5264 C.ar    1  UNL1        0.0534
     13 C          62.6352   82.4337   13.7837 C.ar    1  UNL1        0.0054
     14 C          62.3996   81.3860   12.7364 C.ar    1  UNL1        0.0115
     15 C          63.1372   81.4503   11.4319 C.ar    1  UNL1        0.0577
     16 CL         62.9016   80.4026   10.3846 Cl      1  UNL1       -0.0822
     17 C          64.1104   82.5624   11.1746 C.ar    1  UNL1        0.0115
     18 C          64.3460   83.6101   12.2220 C.ar    1  UNL1        0.0054
     19 C          62.6590   86.9581   18.8905 C.3     1  UNL1        0.0017
     20 C          62.6638   85.8536   17.8755 C.3     1  UNL1        0.0196
     21 O          65.1440   92.1385   14.6872 O.3     1  UNL1       -0.4791
     22 C          65.2642   92.4995   13.2362 C.ar    1  UNL1        0.1413
     23 C          66.3061   93.4827   12.7917 C.ar    1  UNL1        0.0575
     24 C          66.4262   93.8437   11.3408 C.ar    1  UNL1        0.1019
     25 N          65.5043   93.2215   10.3343 N.ar    1  UNL1       -0.2436
     26 C          64.4624   92.2383   10.7788 C.ar    1  UNL1        0.0865
     27 C          63.5406   91.6160    9.7723 C.ar    1  UNL1        0.0488
     28 C          62.4986   90.6328   10.2167 C.ar    1  UNL1        0.1416
     29 F          61.5768   90.0106    9.2102 F       1  UNL1       -0.2041
     30 C          62.3785   90.2718   11.6677 C.ar    1  UNL1        0.0298
     31 C          63.3003   90.8940   12.6742 C.ar    1  UNL1        0.0068
     32 C          64.3423   91.8773   12.2297 C.ar    1  UNL1        0.0518
@<TRIPOS>BOND
     1    19    20    1
     2    20     7    1
     3     7     8    1
     4     8     9   am
     5     9    10    2
     6     9    12    1
     7    12    13   ar
     8    13    14   ar
     9    14    15   ar
    10    15    16    1
    11    15    17   ar
    12    17    18   ar
    13     1     7    1
    14     1     2    1
    15     2     3    1
    16     3     4    1
    17     4    21    1
    18    21    22    1
    19    22    23   ar
    20    23    24   ar
    21    24    25   ar
    22    25    26   ar
    23    26    27   ar
    24    27    28   ar
    25    28    29    1
    26    28    30   ar
    27    30    31   ar
    28    31    32   ar
    29     4     5    1
    30     6     5    1
    31    18    12   ar
    32     6     1    1
    33     6     2    1
    34    32    22   ar
    35    32    26   ar
    36     8    11    1
@<TRIPOS>MOLECULE
*****
 32 36 0 0 0
SMALL
GASTEIGER

@<TRIPOS>ATOM
      1 C          62.1606   87.8245   10.8438 C.3     1  UNL1        0.0182
      2 C          62.4401   89.2971   10.7882 C.3     1  UNL1        0.0053
      3 C          62.8386   90.7247   11.0192 C.3     1  UNL1        0.0436
      4 C          63.4662   90.8166   12.3785 C.3     1  UNL1        0.1659
      5 C          63.4556   89.4459   12.9876 C.3     1  UNL1        0.0436
      6 C          62.8214   88.5068   12.0047 C.3     1  UNL1        0.0053
      7 C          61.6177   86.5803   10.2057 C.3     1  UNL1        0.0718
      8 N          61.5811   85.2954   10.9790 N.am    1  UNL1       -0.3025
      9 C          62.6991   84.3049   10.8409 C.2     1  UNL1        0.2458
     10 O          63.8536   84.5992    9.9295 O.2     1  UNL1       -0.2701
     11 H          60.8234   85.1023   11.5771 H       1  UNL1        0.1497
     12 C          62.6625   83.0201   11.6141 C.ar    1  UNL1        0.0534
     13 C          62.9303   81.7183   10.9186 C.ar    1  UNL1        0.0054
     14 C          62.8938   80.4335   11.6919 C.ar    1  UNL1        0.0115
     15 C          62.5894   80.4505   13.1606 C.ar    1  UNL1        0.0577
     16 CL         62.5529   79.1657   13.9338 Cl      1  UNL1       -0.0822
     17 C          62.3216   81.7523   13.8561 C.ar    1  UNL1        0.0115
     18 C          62.3582   83.0371   13.0827 C.ar    1  UNL1        0.0054
     19 C          59.6385   86.7204    8.5284 C.3     1  UNL1        0.0017
     20 C          61.1114   86.6209    8.7943 C.3     1  UNL1        0.0196
     21 O          64.0091   92.0608   13.0166 O.3     1  UNL1       -0.4791
     22 C          65.4628   92.1461   13.3766 C.ar    1  UNL1        0.1413
     23 C          65.8788   92.1652   14.8176 C.ar    1  UNL1        0.0575
     24 C          67.3325   92.2504   15.1775 C.ar    1  UNL1        0.1019
     25 N          68.3702   92.3165   14.0963 N.ar    1  UNL1       -0.2436
     26 C          67.9542   92.2974   12.6553 C.ar    1  UNL1        0.0865
     27 C          68.9919   92.3636   11.5742 C.ar    1  UNL1        0.0488
     28 C          68.5759   92.3444   10.1332 C.ar    1  UNL1        0.1416
     29 F          69.6136   92.4106    9.0521 F       1  UNL1       -0.2041
     30 C          67.1222   92.2592    9.7732 C.ar    1  UNL1        0.0298
     31 C          66.0845   92.1931   10.8544 C.ar    1  UNL1        0.0068
     32 C          66.5005   92.2122   12.2955 C.ar    1  UNL1        0.0518
@<TRIPOS>BOND
     1    19    20    1
     2    20     7    1
     3     7     8    1
     4     8     9   am
     5     9    10    2
     6     9    12    1
     7    12    13   ar
     8    13    14   ar
     9    14    15   ar
    10    15    16    1
    11    15    17   ar
    12    17    18   ar
    13     1     7    1
    14     1     2    1
    15     2     3    1
    16     3     4    1
    17     4    21    1
    18    21    22    1
    19    22    23   ar
    20    23    24   ar
    21    24    25   ar
    22    25    26   ar
    23    26    27   ar
    24    27    28   ar
    25    28    29    1
    26    28    30   ar
    27    30    31   ar
    28    31    32   ar
    29     4     5    1
    30     6     5    1
    31    18    12   ar
    32     6     1    1
    33     6     2    1
    34    32    22   ar
    35    32    26   ar
    36     8    11    1
@<TRIPOS>MOLECULE
*****
 32 36 0 0 0
SMALL
GASTEIGER

@<TRIPOS>ATOM
      1 C          63.1862   87.5049   16.0445 C.3     1  UNL1        0.0182
      2 C          63.2934   88.9711   16.3426 C.3     1  UNL1        0.0053
      3 C          63.5807   90.4427   16.3839 C.3     1  UNL1        0.0436
      4 C          64.4648   90.7754   15.2187 C.3     1  UNL1        0.1659
      5 C          64.7238   89.5093   14.4572 C.3     1  UNL1        0.0436
      6 C          63.9999   88.3942   15.1517 C.3     1  UNL1        0.0053
      7 C          62.6545   86.1450   16.3879 C.3     1  UNL1        0.0718
      8 N          62.4817   85.1137   15.3124 N.am    1  UNL1       -0.3025
      9 C          63.6769   84.6051   14.5621 C.2     1  UNL1        0.2458
     10 O          65.0448   85.1278   14.8873 O.2     1  UNL1       -0.2701
     11 H          61.5840   84.7707   15.0990 H       1  UNL1        0.1497
     12 C          63.5042   83.5739   13.4866 C.ar    1  UNL1        0.0534
     13 C          64.3231   83.6538   12.2324 C.ar    1  UNL1        0.0054
     14 C          64.1503   82.6226   11.1569 C.ar    1  UNL1        0.0115
     15 C          63.1587   81.5114   11.3356 C.ar    1  UNL1        0.0577
     16 CL         62.9860   80.4801   10.2601 Cl      1  UNL1       -0.0822
     17 C          62.3398   81.4314   12.5898 C.ar    1  UNL1        0.0115
     18 C          62.5125   82.4627   13.6653 C.ar    1  UNL1        0.0054
     19 C          62.6545   86.7665   18.9106 C.3     1  UNL1        0.0017
     20 C          62.2956   85.8163   17.8068 C.3     1  UNL1        0.0196
     21 O          64.9965   92.1353   14.8753 O.3     1  UNL1       -0.4791
     22 C          66.4316   92.2993   14.4709 C.ar    1  UNL1        0.1413
     23 C          67.4985   92.4086   15.5195 C.ar    1  UNL1        0.0575
     24 C          68.9336   92.5726   15.1150 C.ar    1  UNL1        0.1019
     25 N          69.3017   92.6274   13.6619 N.ar    1  UNL1       -0.2436
     26 C          68.2348   92.5181   12.6133 C.ar    1  UNL1        0.0865
     27 C          68.6029   92.5729   11.1602 C.ar    1  UNL1        0.0488
     28 C          67.5360   92.4636   10.1116 C.ar    1  UNL1        0.1416
     29 F          67.9041   92.5184    8.6585 F       1  UNL1       -0.2041
     30 C          66.1009   92.2996   10.5160 C.ar    1  UNL1        0.0298
     31 C          65.7327   92.2448   11.9691 C.ar    1  UNL1        0.0068
     32 C          66.7997   92.3541   13.0178 C.ar    1  UNL1        0.0518
@<TRIPOS>BOND
     1    19    20    1
     2    20     7    1
     3     7     8    1
     4     8     9   am
     5     9    10    2
     6     9    12    1
     7    12    13   ar
     8    13    14   ar
     9    14    15   ar
    10    15    16    1
    11    15    17   ar
    12    17    18   ar
    13     1     7    1
    14     1     2    1
    15     2     3    1
    16     3     4    1
    17     4    21    1
    18    21    22    1
    19    22    23   ar
    20    23    24   ar
    21    24    25   ar
    22    25    26   ar
    23    26    27   ar
    24    27    28   ar
    25    28    29    1
    26    28    30   ar
    27    30    31   ar
    28    31    32   ar
    29     4     5    1
    30     6     5    1
    31    18    12   ar
    32     6     1    1
    33     6     2    1
    34    32    22   ar
    35    32    26   ar
    36     8    11    1
@<TRIPOS>MOLECULE
*****
 32 36 0 0 0
SMALL
GASTEIGER

@<TRIPOS>ATOM
      1 C          63.6680   86.4472   13.8468 C.3     1  UNL1        0.0182
      2 C          63.8642   87.9115   13.5872 C.3     1  UNL1        0.0053
      3 C          64.0533   89.3986   13.6402 C.3     1  UNL1        0.0436
      4 C          64.0602   89.8139   15.0816 C.3     1  UNL1        0.1659
      5 C          63.8753   88.5834   15.9193 C.3     1  UNL1        0.0436
      6 C          63.7542   87.4077   14.9957 C.3     1  UNL1        0.0053
      7 C          63.5049   85.0473   13.3333 C.3     1  UNL1        0.0718
      8 N          63.3337   84.8028   11.8633 N.am    1  UNL1       -0.3025
      9 C          62.3213   85.5898   11.0850 C.2     1  UNL1        0.2458
     10 O          61.4800   86.6212   11.7768 O.2     1  UNL1       -0.2701
     11 H          63.8859   84.1259   11.4093 H       1  UNL1        0.1497
     12 C          62.1501   85.3453    9.6150 C.ar    1  UNL1        0.0534
     13 C          63.2141   84.6190    8.8466 C.ar    1  UNL1        0.0054
     14 C          63.0429   84.3745    7.3766 C.ar    1  UNL1        0.0115
     15 C          61.8078   84.8564    6.6750 C.ar    1  UNL1        0.0577
     16 CL         61.6366   84.6120    5.2050 Cl      1  UNL1       -0.0822
     17 C          60.7438   85.5827    7.4434 C.ar    1  UNL1        0.0115
     18 C          60.9150   85.8272    8.9134 C.ar    1  UNL1        0.0054
     19 C          62.4113   83.7446   15.2973 C.3     1  UNL1        0.0017
     20 C          63.5129   83.8920   14.2899 C.3     1  UNL1        0.0196
     21 O          64.2233   91.2138   15.5950 O.3     1  UNL1       -0.4791
     22 C          65.4285   92.0188   15.2083 C.ar    1  UNL1        0.1413
     23 C          66.4125   92.4468   16.2564 C.ar    1  UNL1        0.0575
     24 C          67.6176   93.2518   15.8697 C.ar    1  UNL1        0.1019
     25 N          67.8388   93.6288   14.4348 N.ar    1  UNL1       -0.2436
     26 C          66.8548   93.2009   13.3866 C.ar    1  UNL1        0.0865
     27 C          67.0760   93.5779   11.9518 C.ar    1  UNL1        0.0488
     28 C          66.0920   93.1500   10.9036 C.ar    1  UNL1        0.1416
     29 F          66.3132   93.5270    9.4687 F       1  UNL1       -0.2041
     30 C          64.8868   92.3449   11.2903 C.ar    1  UNL1        0.0298
     31 C          64.6656   91.9679   12.7252 C.ar    1  UNL1        0.0068
     32 C          65.6497   92.3959   13.7734 C.ar    1  UNL1        0.0518
@<TRIPOS>BOND
     1    19    20    1
     2    20     7    1
     3     7     8    1
     4     8     9   am
     5     9    10    2
     6     9    12    1
     7    12    13   ar
     8    13    14   ar
     9    14    15   ar
    10    15    16    1
    11    15    17   ar
    12    17    18   ar
    13     1     7    1
    14     1     2    1
    15     2     3    1
    16     3     4    1
    17     4    21    1
    18    21    22    1
    19    22    23   ar
    20    23    24   ar
    21    24    25   ar
    22    25    26   ar
    23    26    27   ar
    24    27    28   ar
    25    28    29    1
    26    28    30   ar
    27    30    31   ar
    28    31    32   ar
    29     4     5    1
    30     6     5    1
    31    18    12   ar
    32     6     1    1
    33     6     2    1
    34    32    22   ar
    35    32    26   ar
    36     8    11    1
