@<TRIPOS>MOLECULE
*****
 20 21 0 0 0
SMALL
GASTEIGER

@<TRIPOS>ATOM
      1 C          66.1227   94.4257   11.3692 C.2     1  UNL1        0.4051
      2 O          65.4986   94.1487   10.0336 O.2     1  UNL1       -0.2262
      3 N          65.9461   93.4515   12.4961 N.am    1  UNL1       -0.2419
      4 C          66.5078   93.5927   13.8798 C.3     1  UNL1        0.1014
      5 C          66.0856   92.3936   14.6759 C.3     1  UNL1        0.0459
      6 C          65.2629   91.5113   13.7844 C.2     1  UNL1       -0.0144
      7 C          64.6365   90.2047   14.1719 C.2     1  UNL1        0.0428
      8 C          65.1767   92.1652   12.4370 C.3     1  UNL1        0.1199
      9 C          63.8368   89.4291   13.1674 C.1     1  UNL1       -0.0582
     10 C          63.0372   88.6535   12.1628 C.1     1  UNL1       -0.0405
     11 C          62.2375   87.8780   11.1583 C.ar    1  UNL1        0.1224
     12 C          62.2652   86.3783   11.1741 C.ar    1  UNL1        0.0276
     13 C          61.4655   85.6029   10.1696 C.ar    1  UNL1        0.0034
     14 C          60.6382   86.3270    9.1492 C.ar    1  UNL1        0.0148
     15 C          60.6106   87.8266    9.1334 C.ar    1  UNL1        0.0600
     16 C          59.7833   88.5508    8.1130 C.3     1  UNL1        0.0521
     17 N          61.4102   88.6021   10.1379 N.ar    1  UNL1       -0.2414
     18 O          66.9234   95.6768   11.5779 O.3     1  UNL1       -0.4345
     19 C          67.2928   96.8403    9.2844 C.3     1  UNL1        0.0513
     20 C          66.7230   96.8553   10.6720 C.3     1  UNL1        0.2102
@<TRIPOS>BOND
     1    19    20    1
     2    20    18    1
     3    18     1    1
     4     1     2    2
     5     1     3   am
     6     3     4    1
     7     4     5    1
     8     5     6    1
     9     6     7    2
    10     7     9    1
    11     9    10    3
    12    10    11    1
    13    11    12   ar
    14    12    13   ar
    15    13    14   ar
    16    14    15   ar
    17    15    16    1
    18    15    17   ar
    19     6     8    1
    20     8     3    1
    21    17    11   ar
@<TRIPOS>MOLECULE
*****
 20 21 0 0 0
SMALL
GASTEIGER

@<TRIPOS>ATOM
      1 C          62.8979   84.7321   12.4052 C.2     1  UNL1        0.4051
      2 O          63.9154   85.0747   13.4527 O.2     1  UNL1       -0.2262
      3 N          62.3689   85.8009   11.4954 N.am    1  UNL1       -0.2419
      4 C          61.3546   85.6098   10.4070 C.3     1  UNL1        0.1014
      5 C          61.1202   86.9393    9.7532 C.3     1  UNL1        0.0459
      6 C          61.9896   87.9521   10.4375 C.2     1  UNL1       -0.0144
      7 C          62.0726   89.4122   10.1038 C.2     1  UNL1        0.0428
      8 C          62.7614   87.2486   11.5143 C.3     1  UNL1        0.1199
      9 C          62.9926   90.3077   10.8795 C.1     1  UNL1       -0.0582
     10 C          63.9125   91.2032   11.6552 C.1     1  UNL1       -0.0405
     11 C          64.8325   92.0988   12.4310 C.ar    1  UNL1        0.1224
     12 C          65.5301   93.2345   11.7429 C.ar    1  UNL1        0.0276
     13 C          66.4500   94.1299   12.5187 C.ar    1  UNL1        0.0034
     14 C          66.6724   93.8897   13.9825 C.ar    1  UNL1        0.0148
     15 C          65.9748   92.7539   14.6706 C.ar    1  UNL1        0.0600
     16 C          66.1972   92.5137   16.1344 C.3     1  UNL1        0.0521
     17 N          65.0549   91.8585   13.8948 N.ar    1  UNL1       -0.2414
     18 O          62.4095   83.3205   12.2674 O.3     1  UNL1       -0.4345
     19 C          64.1470   82.7304   10.4280 C.3     1  UNL1        0.0513
     20 C          63.2469   82.3039   11.5497 C.3     1  UNL1        0.2102
@<TRIPOS>BOND
     1    19    20    1
     2    20    18    1
     3    18     1    1
     4     1     2    2
     5     1     3   am
     6     3     4    1
     7     4     5    1
     8     5     6    1
     9     6     7    2
    10     7     9    1
    11     9    10    3
    12    10    11    1
    13    11    12   ar
    14    12    13   ar
    15    13    14   ar
    16    14    15   ar
    17    15    16    1
    18    15    17   ar
    19     6     8    1
    20     8     3    1
    21    17    11   ar
@<TRIPOS>MOLECULE
*****
 20 21 0 0 0
SMALL
GASTEIGER

@<TRIPOS>ATOM
      1 C          64.1632   84.0865   14.7286 C.2     1  UNL1        0.4051
      2 O          65.0146   84.5372   13.5787 O.2     1  UNL1       -0.2262
      3 N          63.5858   85.0965   15.6754 N.am    1  UNL1       -0.2419
      4 C          62.7209   84.7973   16.8638 C.3     1  UNL1        0.1014
      5 C          62.3725   86.0990   17.5229 C.3     1  UNL1        0.0459
      6 C          63.0222   87.2026   16.7419 C.2     1  UNL1       -0.0144
      7 C          62.9369   88.6683   17.0488 C.2     1  UNL1        0.0428
      8 C          63.7721   86.5830   15.6000 C.3     1  UNL1        0.1199
      9 C          63.6434   89.6603   16.1729 C.1     1  UNL1       -0.0582
     10 C          64.3499   90.6522   15.2972 C.1     1  UNL1       -0.0405
     11 C          65.0564   91.6442   14.4214 C.ar    1  UNL1        0.1224
     12 C          66.0775   92.5715   15.0108 C.ar    1  UNL1        0.0276
     13 C          66.7839   93.5634   14.1350 C.ar    1  UNL1        0.0034
     14 C          66.4692   93.6280   12.6698 C.ar    1  UNL1        0.0148
     15 C          65.4481   92.7007   12.0804 C.ar    1  UNL1        0.0600
     16 C          65.1335   92.7653   10.6152 C.3     1  UNL1        0.0521
     17 N          64.7417   91.7088   12.9562 N.ar    1  UNL1       -0.2414
     18 O          63.8893   82.6257   14.9316 O.3     1  UNL1       -0.4345
     19 C          61.6720   81.4718   14.2230 C.3     1  UNL1        0.0513
     20 C          63.0870   81.8652   13.9178 C.3     1  UNL1        0.2102
@<TRIPOS>BOND
     1    19    20    1
     2    20    18    1
     3    18     1    1
     4     1     2    2
     5     1     3   am
     6     3     4    1
     7     4     5    1
     8     5     6    1
     9     6     7    2
    10     7     9    1
    11     9    10    3
    12    10    11    1
    13    11    12   ar
    14    12    13   ar
    15    13    14   ar
    16    14    15   ar
    17    15    16    1
    18    15    17   ar
    19     6     8    1
    20     8     3    1
    21    17    11   ar
@<TRIPOS>MOLECULE
*****
 20 21 0 0 0
SMALL
GASTEIGER

@<TRIPOS>ATOM
      1 C          64.7650   91.3303   13.4320 C.2     1  UNL1        0.4051
      2 O          65.2152   90.4325   14.5462 O.2     1  UNL1       -0.2262
      3 N          63.9411   90.7754   12.3080 N.am    1  UNL1       -0.2419
      4 C          63.4212   91.5471   11.1315 C.3     1  UNL1        0.1014
      5 C          62.6513   90.6000   10.2596 C.3     1  UNL1        0.0459
      6 C          62.6954   89.2429   10.8972 C.2     1  UNL1       -0.0144
      7 C          62.0549   87.9964   10.3626 C.2     1  UNL1        0.0428
      8 C          63.4926   89.3513   12.1632 C.3     1  UNL1        0.1199
      9 C          62.1850   86.7047   11.1142 C.1     1  UNL1       -0.0582
     10 C          62.3150   85.4132   11.8659 C.1     1  UNL1       -0.0405
     11 C          62.4451   84.1216   12.6175 C.ar    1  UNL1        0.1224
     12 C          62.4666   84.1255   14.1173 C.ar    1  UNL1        0.0276
     13 C          62.5967   82.8340   14.8688 C.ar    1  UNL1        0.0034
     14 C          62.7052   81.5385   14.1206 C.ar    1  UNL1        0.0148
     15 C          62.6837   81.5345   12.6208 C.ar    1  UNL1        0.0600
     16 C          62.7922   80.2390   11.8725 C.3     1  UNL1        0.0521
     17 N          62.5536   82.8261   11.8692 N.ar    1  UNL1       -0.2414
     18 O          65.1386   92.7830   13.4418 O.3     1  UNL1       -0.4345
     19 C          66.2164   94.5093   11.8268 C.3     1  UNL1        0.0513
     20 C          66.3197   93.2589   12.6490 C.3     1  UNL1        0.2102
@<TRIPOS>BOND
     1    19    20    1
     2    20    18    1
     3    18     1    1
     4     1     2    2
     5     1     3   am
     6     3     4    1
     7     4     5    1
     8     5     6    1
     9     6     7    2
    10     7     9    1
    11     9    10    3
    12    10    11    1
    13    11    12   ar
    14    12    13   ar
    15    13    14   ar
    16    14    15   ar
    17    15    16    1
    18    15    17   ar
    19     6     8    1
    20     8     3    1
    21    17    11   ar
@<TRIPOS>MOLECULE
*****
 20 21 0 0 0
SMALL
GASTEIGER

@<TRIPOS>ATOM
      1 C          62.9501   84.8935   12.5441 C.2     1  UNL1        0.4051
      2 O          63.9921   85.3582   13.5179 O.2     1  UNL1       -0.2262
      3 N          62.3776   85.8532   11.5435 N.am    1  UNL1       -0.2419
      4 C          61.3350   85.5350   10.5130 C.3     1  UNL1        0.1014
      5 C          61.0603   86.7848    9.7303 C.3     1  UNL1        0.0459
      6 C          61.9330   87.8754   10.2770 C.2     1  UNL1       -0.0144
      7 C          61.9828   89.2929    9.7889 C.2     1  UNL1        0.0428
      8 C          62.7472   87.2997   11.3977 C.3     1  UNL1        0.1199
      9 C          62.9106   90.2772   10.4373 C.1     1  UNL1       -0.0582
     10 C          63.8384   91.2615   11.0856 C.1     1  UNL1       -0.0405
     11 C          64.7662   92.2458   11.7340 C.ar    1  UNL1        0.1224
     12 C          65.2441   92.0143   13.1368 C.ar    1  UNL1        0.0276
     13 C          66.1719   92.9986   13.7851 C.ar    1  UNL1        0.0034
     14 C          66.6217   94.2145   13.0306 C.ar    1  UNL1        0.0148
     15 C          66.1438   94.4460   11.6278 C.ar    1  UNL1        0.0600
     16 C          66.5936   95.6619   10.8733 C.3     1  UNL1        0.0521
     17 N          65.2160   93.4617   10.9795 N.ar    1  UNL1       -0.2414
     18 O          62.4805   83.4692   12.5709 O.3     1  UNL1       -0.4345
     19 C          64.0866   82.7821   10.6477 C.3     1  UNL1        0.0513
     20 C          63.2505   82.4117   11.8368 C.3     1  UNL1        0.2102
@<TRIPOS>BOND
     1    19    20    1
     2    20    18    1
     3    18     1    1
     4     1     2    2
     5     1     3   am
     6     3     4    1
     7     4     5    1
     8     5     6    1
     9     6     7    2
    10     7     9    1
    11     9    10    3
    12    10    11    1
    13    11    12   ar
    14    12    13   ar
    15    13    14   ar
    16    14    15   ar
    17    15    16    1
    18    15    17   ar
    19     6     8    1
    20     8     3    1
    21    17    11   ar
@<TRIPOS>MOLECULE
*****
 20 21 0 0 0
SMALL
GASTEIGER

@<TRIPOS>ATOM
      1 C          63.8887   82.8506   13.5745 C.2     1  UNL1        0.4051
      2 O          64.6233   83.2896   14.8065 O.2     1  UNL1       -0.2262
      3 N          63.3280   83.8733   12.6312 N.am    1  UNL1       -0.2419
      4 C          62.5741   83.5867   11.3665 C.3     1  UNL1        0.1014
      5 C          62.2030   84.8985   10.7407 C.3     1  UNL1        0.0459
      6 C          62.7275   85.9958   11.6187 C.2     1  UNL1       -0.0144
      7 C          62.5822   87.4682   11.3716 C.2     1  UNL1        0.0428
      8 C          63.4228   85.3622   12.7872 C.3     1  UNL1        0.1199
      9 C          63.1625   88.4526   12.3435 C.1     1  UNL1       -0.0582
     10 C          63.7427   89.4369   13.3152 C.1     1  UNL1       -0.0405
     11 C          64.3230   90.4213   14.2870 C.ar    1  UNL1        0.1224
     12 C          63.6711   90.6310   15.6215 C.ar    1  UNL1        0.0276
     13 C          64.2513   91.6154   16.5932 C.ar    1  UNL1        0.0034
     14 C          65.4835   92.3900   16.2304 C.ar    1  UNL1        0.0148
     15 C          66.1355   92.1803   14.8959 C.ar    1  UNL1        0.0600
     16 C          67.3677   92.9549   14.5332 C.3     1  UNL1        0.0521
     17 N          65.5552   91.1959   13.9242 N.ar    1  UNL1       -0.2414
     18 O          63.7148   81.3890   13.2858 O.3     1  UNL1       -0.4345
     19 C          61.2926   81.2524   14.2155 C.3     1  UNL1        0.0513
     20 C          62.3398   80.7909   13.2458 C.3     1  UNL1        0.2102
@<TRIPOS>BOND
     1    19    20    1
     2    20    18    1
     3    18     1    1
     4     1     2    2
     5     1     3   am
     6     3     4    1
     7     4     5    1
     8     5     6    1
     9     6     7    2
    10     7     9    1
    11     9    10    3
    12    10    11    1
    13    11    12   ar
    14    12    13   ar
    15    13    14   ar
    16    14    15   ar
    17    15    16    1
    18    15    17   ar
    19     6     8    1
    20     8     3    1
    21    17    11   ar
@<TRIPOS>MOLECULE
*****
 20 21 0 0 0
SMALL
GASTEIGER

@<TRIPOS>ATOM
      1 C          63.4205   90.6121   11.1547 C.2     1  UNL1        0.4051
      2 O          62.8696   89.6382   10.1555 O.2     1  UNL1       -0.2262
      3 N          63.8318   90.1372   12.5168 N.am    1  UNL1       -0.2419
      4 C          64.3960   90.9897   13.6145 C.3     1  UNL1        0.1014
      5 C          64.6640   90.1058   14.7965 C.3     1  UNL1        0.0459
      6 C          64.2654   88.7071   14.4292 C.2     1  UNL1       -0.0144
      7 C          64.3638   87.5009   15.3153 C.2     1  UNL1        0.0428
      8 C          63.7510   88.7265   13.0202 C.3     1  UNL1        0.1199
      9 C          63.9244   86.1595   14.8077 C.1     1  UNL1       -0.0582
     10 C          63.4850   84.8182   14.3000 C.1     1  UNL1       -0.0405
     11 C          63.0456   83.4768   13.7923 C.ar    1  UNL1        0.1224
     12 C          62.2330   82.5720   14.6703 C.ar    1  UNL1        0.0276
     13 C          61.7936   81.2307   14.1627 C.ar    1  UNL1        0.0034
     14 C          62.1668   80.7941   12.7770 C.ar    1  UNL1        0.0148
     15 C          62.9794   81.6989   11.8989 C.ar    1  UNL1        0.0600
     16 C          63.3526   81.2624   10.5132 C.3     1  UNL1        0.0521
     17 N          63.4188   83.0403   12.4066 N.ar    1  UNL1       -0.2414
     18 O          63.5600   92.0608   10.7917 O.3     1  UNL1       -0.4345
     19 C          65.6342   93.5092   11.3832 C.3     1  UNL1        0.0513
     20 C          64.9043   92.6158   10.4245 C.3     1  UNL1        0.2102
@<TRIPOS>BOND
     1    19    20    1
     2    20    18    1
     3    18     1    1
     4     1     2    2
     5     1     3   am
     6     3     4    1
     7     4     5    1
     8     5     6    1
     9     6     7    2
    10     7     9    1
    11     9    10    3
    12    10    11    1
    13    11    12   ar
    14    12    13   ar
    15    13    14   ar
    16    14    15   ar
    17    15    16    1
    18    15    17   ar
    19     6     8    1
    20     8     3    1
    21    17    11   ar
@<TRIPOS>MOLECULE
*****
 20 21 0 0 0
SMALL
GASTEIGER

@<TRIPOS>ATOM
      1 C          64.1710   82.9764   12.4728 C.2     1  UNL1        0.4051
      2 O          64.6673   83.7717   11.3017 O.2     1  UNL1       -0.2262
      3 N          63.8435   83.6668   13.7635 N.am    1  UNL1       -0.2419
      4 C          63.3404   83.0073   15.0133 C.3     1  UNL1        0.1014
      5 C          63.1475   84.0709   16.0532 C.3     1  UNL1        0.0459
      6 C          63.5314   85.3878   15.4463 C.2     1  UNL1       -0.0144
      7 C          63.4921   86.7204   16.1337 C.2     1  UNL1        0.0428
      8 C          63.9616   85.1381   14.0311 C.3     1  UNL1        0.1199
      9 C          63.9082   87.9579   15.3951 C.1     1  UNL1       -0.0582
     10 C          64.3242   89.1954   14.6565 C.1     1  UNL1       -0.0405
     11 C          64.7402   90.4329   13.9179 C.ar    1  UNL1        0.1224
     12 C          64.2068   90.6999   12.5416 C.ar    1  UNL1        0.0276
     13 C          64.6229   91.9373   11.8030 C.ar    1  UNL1        0.0034
     14 C          65.5724   92.9078   12.4407 C.ar    1  UNL1        0.0148
     15 C          66.1058   92.6408   13.8170 C.ar    1  UNL1        0.0600
     16 C          67.0552   93.6113   14.4547 C.3     1  UNL1        0.0521
     17 N          65.6897   91.4034   14.5556 N.ar    1  UNL1       -0.2414
     18 O          64.0023   81.4908   12.3531 O.3     1  UNL1       -0.4345
     19 C          62.1723   79.9683   13.3938 C.3     1  UNL1        0.0513
     20 C          62.6272   80.8937   12.3044 C.3     1  UNL1        0.2102
@<TRIPOS>BOND
     1    19    20    1
     2    20    18    1
     3    18     1    1
     4     1     2    2
     5     1     3   am
     6     3     4    1
     7     4     5    1
     8     5     6    1
     9     6     7    2
    10     7     9    1
    11     9    10    3
    12    10    11    1
    13    11    12   ar
    14    12    13   ar
    15    13    14   ar
    16    14    15   ar
    17    15    16    1
    18    15    17   ar
    19     6     8    1
    20     8     3    1
    21    17    11   ar
@<TRIPOS>MOLECULE
*****
 20 21 0 0 0
SMALL
GASTEIGER

@<TRIPOS>ATOM
      1 C          62.5847   92.0868    2.9168 C.2     1  UNL1        0.4051
      2 O          63.7292   91.2938    3.4749 O.2     1  UNL1       -0.2262
      3 N          61.2173   91.9558    3.5192 N.am    1  UNL1       -0.2419
      4 C          59.9831   92.6808    3.0706 C.3     1  UNL1        0.1014
      5 C          58.8470   92.2498    3.9501 C.3     1  UNL1        0.0459
      6 C          59.3789   91.2586    4.9423 C.2     1  UNL1       -0.0144
      7 C          58.5853   90.5699    6.0128 C.2     1  UNL1        0.0428
      8 C          60.8439   91.0768    4.6760 C.3     1  UNL1        0.1199
      9 C          59.2574   89.5978    6.9365 C.1     1  UNL1       -0.0582
     10 C          59.9295   88.6256    7.8602 C.1     1  UNL1       -0.0405
     11 C          60.6015   87.6535    8.7840 C.ar    1  UNL1        0.1224
     12 C          60.2943   87.6787   10.2519 C.ar    1  UNL1        0.0276
     13 C          60.9664   86.7065   11.1756 C.ar    1  UNL1        0.0034
     14 C          61.9457   85.7092   10.6313 C.ar    1  UNL1        0.0148
     15 C          62.2529   85.6839    9.1634 C.ar    1  UNL1        0.0600
     16 C          63.2322   84.6866    8.6191 C.3     1  UNL1        0.0521
     17 N          61.5808   86.6561    8.2397 N.ar    1  UNL1       -0.2414
     18 O          62.8077   93.0107    1.7564 O.3     1  UNL1       -0.4345
     19 C          65.1598   93.5947    0.8199 C.3     1  UNL1        0.0513
     20 C          64.0103   93.9069    1.7317 C.3     1  UNL1        0.2102
@<TRIPOS>BOND
     1    19    20    1
     2    20    18    1
     3    18     1    1
     4     1     2    2
     5     1     3   am
     6     3     4    1
     7     4     5    1
     8     5     6    1
     9     6     7    2
    10     7     9    1
    11     9    10    3
    12    10    11    1
    13    11    12   ar
    14    12    13   ar
    15    13    14   ar
    16    14    15   ar
    17    15    16    1
    18    15    17   ar
    19     6     8    1
    20     8     3    1
    21    17    11   ar
