@<TRIPOS>MOLECULE
*****
 32 35 0 0 0
SMALL
GASTEIGER

@<TRIPOS>ATOM
      1 C          65.2524   92.1649   12.3522 C.ar    1  UNL1       -0.0004
      2 C          64.7947   91.3039   13.4920 C.ar    1  UNL1       -0.0024
      3 C          63.6267   90.3801   13.3120 C.ar    1  UNL1       -0.0002
      4 C          62.9165   90.3173   11.9923 C.ar    1  UNL1        0.0030
      5 C          61.7485   89.3935   11.8123 C.ar    1  UNL1        0.0369
      6 C          61.0383   89.3307   10.4926 C.ar    1  UNL1        0.1391
      7 C          61.4961   90.1918    9.3528 C.ar    1  UNL1        0.0369
      8 C          62.6640   91.1156    9.5328 C.ar    1  UNL1        0.0031
      9 C          63.3742   91.1784   10.8525 C.ar    1  UNL1       -0.0001
     10 C          64.5422   92.1022   11.0325 C.ar    1  UNL1       -0.0024
     11 C          66.4204   93.0888   12.5322 C.3     1  UNL1        0.1240
     12 N          67.2632   93.0000   13.7699 N.ar    1  UNL1       -0.3045
     13 C          67.1146   93.8451   15.0002 C.ar    1  UNL1        0.0983
     14 C          68.1621   93.4179   15.9853 C.ar    1  UNL1        0.1193
     15 N          68.9580   92.3087   15.3637 N.ar    1  UNL1       -0.2223
     16 C          68.4024   92.0505   13.9946 C.ar    1  UNL1        0.1788
     17 C          66.2510   95.5112   11.6084 C.3     1  UNL1        0.0197
     18 C          66.7456   94.1014   11.4744 C.3     1  UNL1        0.0827
     19 N          67.5654   93.7043   10.2827 N.3     1  UNL1       -0.2696
     20 C          67.8110   94.6901    9.1791 C.3     1  UNL1        0.0897
     21 C          68.1396   92.3214   10.1945 C.3     1  UNL1        0.0897
     22 O          59.8703   88.4069   10.3126 O.3     1  UNL1       -0.4706
     23 C          60.0335   87.1341    9.5357 C.3     1  UNL1        0.2320
     24 C          61.1161   86.1637    9.9048 C.ar    1  UNL1        0.0216
     25 C          61.3471   85.8095   11.3439 C.ar    1  UNL1        0.0056
     26 C          62.4298   84.8391   11.7130 C.ar    1  UNL1        0.0751
     27 C          63.2814   84.2230   10.6430 C.ar    1  UNL1        0.2900
     28 C          63.0504   84.5773    9.2038 C.ar    1  UNL1        0.0751
     29 C          61.9678   85.5476    8.8347 C.ar    1  UNL1        0.0056
     30 N          64.3641   83.2526   11.0120 N.pl3   1  UNL1        0.0809
     31 O          64.9253   82.3251    9.9753 O.2     1  UNL1        0.0415
     32 O          64.8855   83.2097   12.4178 O.co2   1  UNL1       -0.5760
@<TRIPOS>UNITY_ATOM_ATTR
30 1
charge 1
32 1
charge -1
@<TRIPOS>BOND
     1    17    18    1
     2    18    11    1
     3    11     1    1
     4     1     2   ar
     5     2     3   ar
     6     3     4   ar
     7     4     5   ar
     8     5     6   ar
     9     6    22    1
    10    22    23    1
    11    23    24    1
    12    24    25   ar
    13    25    26   ar
    14    26    27   ar
    15    27    30    1
    16    30    31    2
    17    30    32    1
    18    27    28   ar
    19    28    29   ar
    20     6     7   ar
    21     7     8   ar
    22     8     9   ar
    23     9    10   ar
    24    11    12    1
    25    12    13   ar
    26    13    14   ar
    27    14    15   ar
    28    15    16   ar
    29    18    19    1
    30    19    20    1
    31    19    21    1
    32    10     1   ar
    33    16    12   ar
    34     9     4   ar
    35    29    24   ar
@<TRIPOS>MOLECULE
*****
 32 35 0 0 0
SMALL
GASTEIGER

@<TRIPOS>ATOM
      1 C          65.2939   92.0654   12.5542 C.ar    1  UNL1       -0.0004
      2 C          64.8279   91.1435   13.6417 C.ar    1  UNL1       -0.0024
      3 C          63.6586   90.2344   13.4044 C.ar    1  UNL1       -0.0002
      4 C          62.9553   90.2474   12.0796 C.ar    1  UNL1        0.0030
      5 C          61.7859   89.3383   11.8423 C.ar    1  UNL1        0.0369
      6 C          61.0826   89.3512   10.5175 C.ar    1  UNL1        0.1391
      7 C          61.5487   90.2732    9.4299 C.ar    1  UNL1        0.0369
      8 C          62.7180   91.1822    9.6672 C.ar    1  UNL1        0.0031
      9 C          63.4213   91.1693   10.9920 C.ar    1  UNL1       -0.0001
     10 C          64.5906   92.0783   11.2293 C.ar    1  UNL1       -0.0024
     11 C          66.4633   92.9745   12.7914 C.3     1  UNL1        0.1240
     12 N          66.5727   94.2676   12.0390 N.ar    1  UNL1       -0.3045
     13 C          66.9320   94.4170   10.5904 C.ar    1  UNL1        0.0983
     14 C          66.9234   95.8800   10.2592 C.ar    1  UNL1        0.1193
     15 N          66.5589   96.6347   11.5032 N.ar    1  UNL1       -0.2223
     16 C          66.3422   95.6382   12.6032 C.ar    1  UNL1        0.1788
     17 C          68.6365   91.6734   13.3696 C.3     1  UNL1        0.0197
     18 C          67.5231   92.5906   13.7810 C.3     1  UNL1        0.0827
     19 N          67.4695   93.1237   15.1820 N.3     1  UNL1       -0.2696
     20 C          68.5897   93.9738   15.7043 C.3     1  UNL1        0.0897
     21 C          66.2959   92.8069   16.0608 C.3     1  UNL1        0.0897
     22 O          59.9133   88.4421   10.2802 O.3     1  UNL1       -0.4706
     23 C          60.0907   87.1848    9.4817 C.3     1  UNL1        0.2320
     24 C          61.1563   86.1995    9.8609 C.ar    1  UNL1        0.0216
     25 C          61.3514   85.8225   11.2995 C.ar    1  UNL1        0.0056
     26 C          62.4170   84.8372   11.6788 C.ar    1  UNL1        0.0751
     27 C          63.2875   84.2291   10.6194 C.ar    1  UNL1        0.2900
     28 C          63.0924   84.6062    9.1807 C.ar    1  UNL1        0.0751
     29 C          62.0268   85.5914    8.8015 C.ar    1  UNL1        0.0056
     30 N          64.3531   83.2439   10.9986 N.pl3   1  UNL1        0.0809
     31 O          64.8663   83.1993   12.4073 O.2     1  UNL1        0.0415
     32 O          64.9054   82.3032    9.9690 O.co2   1  UNL1       -0.5760
@<TRIPOS>UNITY_ATOM_ATTR
30 1
charge 1
32 1
charge -1
@<TRIPOS>BOND
     1    17    18    1
     2    18    11    1
     3    11     1    1
     4     1     2   ar
     5     2     3   ar
     6     3     4   ar
     7     4     5   ar
     8     5     6   ar
     9     6    22    1
    10    22    23    1
    11    23    24    1
    12    24    25   ar
    13    25    26   ar
    14    26    27   ar
    15    27    30    1
    16    30    31    2
    17    30    32    1
    18    27    28   ar
    19    28    29   ar
    20     6     7   ar
    21     7     8   ar
    22     8     9   ar
    23     9    10   ar
    24    11    12    1
    25    12    13   ar
    26    13    14   ar
    27    14    15   ar
    28    15    16   ar
    29    18    19    1
    30    19    20    1
    31    19    21    1
    32    10     1   ar
    33    16    12   ar
    34     9     4   ar
    35    29    24   ar
@<TRIPOS>MOLECULE
*****
 32 35 0 0 0
SMALL
GASTEIGER

@<TRIPOS>ATOM
      1 C          62.7561   85.8049   11.9572 C.ar    1  UNL1       -0.0004
      2 C          63.1128   87.2195   12.3060 C.ar    1  UNL1       -0.0024
      3 C          62.5467   88.3548   11.5056 C.ar    1  UNL1       -0.0002
      4 C          61.6240   88.0755   10.3564 C.ar    1  UNL1        0.0030
      5 C          61.0579   89.2108    9.5560 C.ar    1  UNL1        0.0369
      6 C          60.1352   88.9315    8.4068 C.ar    1  UNL1        0.1391
      7 C          59.7786   87.5168    8.0581 C.ar    1  UNL1        0.0369
      8 C          60.3446   86.3816    8.8584 C.ar    1  UNL1        0.0031
      9 C          61.2673   86.6609   10.0076 C.ar    1  UNL1       -0.0001
     10 C          61.8334   85.5256   10.8080 C.ar    1  UNL1       -0.0024
     11 C          63.3222   84.6695   12.7576 C.3     1  UNL1        0.1240
     12 N          63.2415   83.2673   12.2311 N.ar    1  UNL1       -0.3045
     13 C          63.8208   82.7765   10.9374 C.ar    1  UNL1        0.0983
     14 C          63.5047   81.3155   10.8126 C.ar    1  UNL1        0.1193
     15 N          62.7301   80.9033   12.0291 N.ar    1  UNL1       -0.2223
     16 C          62.5674   82.1095   12.9058 C.ar    1  UNL1        0.1788
     17 C          65.4630   84.8975   14.2119 C.3     1  UNL1        0.0197
     18 C          63.9689   84.9364   14.0844 C.3     1  UNL1        0.0827
     19 N          63.1215   85.2422   15.2838 N.3     1  UNL1       -0.2696
     20 C          63.5192   86.3430   16.2220 C.3     1  UNL1        0.0897
     21 C          61.8765   84.4474   15.5449 C.3     1  UNL1        0.0897
     22 O          59.5692   90.0668    7.6064 O.3     1  UNL1       -0.4706
     23 C          59.2153   89.8637    6.1630 C.3     1  UNL1        0.2320
     24 C          59.7286   90.8157    5.1237 C.ar    1  UNL1        0.0216
     25 C          58.7899   91.7793    4.4603 C.ar    1  UNL1        0.0056
     26 C          59.3032   92.7314    3.4210 C.ar    1  UNL1        0.0751
     27 C          60.7553   92.7198    3.0452 C.ar    1  UNL1        0.2900
     28 C          61.6941   91.7562    3.7087 C.ar    1  UNL1        0.0751
     29 C          61.1807   90.8041    4.7479 C.ar    1  UNL1        0.0056
     30 N          61.2687   93.6718    2.0060 N.pl3   1  UNL1        0.0809
     31 O          60.5516   94.9650    1.7538 O.2     1  UNL1        0.0415
     32 O          62.4992   93.3307    1.2189 O.co2   1  UNL1       -0.5760
@<TRIPOS>UNITY_ATOM_ATTR
30 1
charge 1
32 1
charge -1
@<TRIPOS>BOND
     1    17    18    1
     2    18    11    1
     3    11     1    1
     4     1     2   ar
     5     2     3   ar
     6     3     4   ar
     7     4     5   ar
     8     5     6   ar
     9     6    22    1
    10    22    23    1
    11    23    24    1
    12    24    25   ar
    13    25    26   ar
    14    26    27   ar
    15    27    30    1
    16    30    31    2
    17    30    32    1
    18    27    28   ar
    19    28    29   ar
    20     6     7   ar
    21     7     8   ar
    22     8     9   ar
    23     9    10   ar
    24    11    12    1
    25    12    13   ar
    26    13    14   ar
    27    14    15   ar
    28    15    16   ar
    29    18    19    1
    30    19    20    1
    31    19    21    1
    32    10     1   ar
    33    16    12   ar
    34     9     4   ar
    35    29    24   ar
@<TRIPOS>MOLECULE
*****
 32 35 0 0 0
SMALL
GASTEIGER

@<TRIPOS>ATOM
      1 C          61.5659   93.1121    2.0437 C.ar    1  UNL1       -0.0004
      2 C          62.6099   92.2323    2.6648 C.ar    1  UNL1       -0.0024
      3 C          62.2453   91.3230    3.8006 C.ar    1  UNL1       -0.0002
      4 C          60.8367   91.2934    4.3152 C.ar    1  UNL1        0.0030
      5 C          60.4721   90.3839    5.4511 C.ar    1  UNL1        0.0369
      6 C          59.0634   90.3543    5.9657 C.ar    1  UNL1        0.1391
      7 C          58.0193   91.2342    5.3444 C.ar    1  UNL1        0.0369
      8 C          58.3840   92.1436    4.2086 C.ar    1  UNL1        0.0031
      9 C          59.7926   92.1732    3.6940 C.ar    1  UNL1       -0.0001
     10 C          60.1572   93.0825    2.5583 C.ar    1  UNL1       -0.0024
     11 C          61.9305   94.0216    0.9078 C.3     1  UNL1        0.1240
     12 N          61.0773   94.0605   -0.3253 N.ar    1  UNL1       -0.3045
     13 C          59.8967   94.9574   -0.5527 C.ar    1  UNL1        0.0983
     14 C          59.3447   94.6606   -1.9155 C.ar    1  UNL1        0.1193
     15 N          60.1841   93.5802   -2.5304 N.ar    1  UNL1       -0.2223
     16 C          61.2549   93.2094   -1.5476 C.ar    1  UNL1        0.1788
     17 C          63.1379   96.0992    1.8954 C.3     1  UNL1        0.0197
     18 C          63.1481   94.8920    1.0051 C.3     1  UNL1        0.0827
     19 N          64.3761   94.5553    0.2122 N.3     1  UNL1       -0.2696
     20 C          65.3798   93.5844    0.7600 C.3     1  UNL1        0.0897
     21 C          64.6003   95.1893   -1.1286 C.3     1  UNL1        0.0897
     22 O          58.6988   89.4450    7.1015 O.3     1  UNL1       -0.4706
     23 C          59.3853   88.1196    7.2512 C.3     1  UNL1        0.2320
     24 C          60.2331   87.8463    8.4581 C.ar    1  UNL1        0.0216
     25 C          60.8035   88.9869    9.2478 C.ar    1  UNL1        0.0056
     26 C          61.6514   88.7136   10.4547 C.ar    1  UNL1        0.0751
     27 C          61.9288   87.2997   10.8718 C.ar    1  UNL1        0.2900
     28 C          61.3583   86.1591   10.0819 C.ar    1  UNL1        0.0751
     29 C          60.5105   86.4324    8.8751 C.ar    1  UNL1        0.0056
     30 N          62.7766   87.0263   12.0786 N.pl3   1  UNL1        0.0809
     31 O          62.8740   85.6335   12.6269 O.2     1  UNL1        0.0415
     32 O          63.5270   88.1458   12.7371 O.co2   1  UNL1       -0.5760
@<TRIPOS>UNITY_ATOM_ATTR
30 1
charge 1
32 1
charge -1
@<TRIPOS>BOND
     1    17    18    1
     2    18    11    1
     3    11     1    1
     4     1     2   ar
     5     2     3   ar
     6     3     4   ar
     7     4     5   ar
     8     5     6   ar
     9     6    22    1
    10    22    23    1
    11    23    24    1
    12    24    25   ar
    13    25    26   ar
    14    26    27   ar
    15    27    30    1
    16    30    31    2
    17    30    32    1
    18    27    28   ar
    19    28    29   ar
    20     6     7   ar
    21     7     8   ar
    22     8     9   ar
    23     9    10   ar
    24    11    12    1
    25    12    13   ar
    26    13    14   ar
    27    14    15   ar
    28    15    16   ar
    29    18    19    1
    30    19    20    1
    31    19    21    1
    32    10     1   ar
    33    16    12   ar
    34     9     4   ar
    35    29    24   ar
@<TRIPOS>MOLECULE
*****
 32 35 0 0 0
SMALL
GASTEIGER

@<TRIPOS>ATOM
      1 C          65.4248   92.2848   12.4588 C.ar    1  UNL1       -0.0004
      2 C          65.0118   91.5184   13.6802 C.ar    1  UNL1       -0.0024
      3 C          63.8371   90.5876   13.6198 C.ar    1  UNL1       -0.0002
      4 C          63.0755   90.4233   12.3381 C.ar    1  UNL1        0.0030
      5 C          61.9007   89.4924   12.2778 C.ar    1  UNL1        0.0369
      6 C          61.1391   89.3281   10.9960 C.ar    1  UNL1        0.1391
      7 C          61.5522   90.0946    9.7746 C.ar    1  UNL1        0.0369
      8 C          62.7269   91.0254    9.8349 C.ar    1  UNL1        0.0031
      9 C          63.4885   91.1897   11.1167 C.ar    1  UNL1       -0.0001
     10 C          64.6632   92.1205   11.1770 C.ar    1  UNL1       -0.0024
     11 C          66.5996   93.2157   12.5191 C.3     1  UNL1        0.1240
     12 N          67.5404   93.1613   13.6861 N.ar    1  UNL1       -0.3045
     13 C          67.4003   93.9274   14.9681 C.ar    1  UNL1        0.0983
     14 C          68.5599   93.5708   15.8503 C.ar    1  UNL1        0.1193
     15 N          69.4167   92.5844   15.1135 N.ar    1  UNL1       -0.2223
     16 C          68.7866   92.3313   13.7760 C.ar    1  UNL1        0.1788
     17 C          66.2914   95.5952   11.5226 C.3     1  UNL1        0.0197
     18 C          66.8334   94.2009   11.4125 C.3     1  UNL1        0.0827
     19 N          67.6093   93.7918   10.1956 N.3     1  UNL1       -0.2696
     20 C          68.1869   92.4104   10.1038 C.3     1  UNL1        0.0897
     21 C          67.8077   94.7640    9.0707 C.3     1  UNL1        0.0897
     22 O          59.9644   88.3973   10.9357 O.3     1  UNL1       -0.4706
     23 C          60.1848   86.9166   10.8402 C.3     1  UNL1        0.2320
     24 C          60.6774   86.3127    9.5585 C.ar    1  UNL1        0.0216
     25 C          59.7685   86.2360    8.3677 C.ar    1  UNL1        0.0056
     26 C          60.2610   85.6322    7.0860 C.ar    1  UNL1        0.0751
     27 C          61.6624   85.1050    6.9951 C.ar    1  UNL1        0.2900
     28 C          62.5713   85.1818    8.1859 C.ar    1  UNL1        0.0751
     29 C          62.0787   85.7856    9.4676 C.ar    1  UNL1        0.0056
     30 N          62.1549   84.5012    5.7134 N.pl3   1  UNL1        0.0809
     31 O          63.6254   84.4603    5.4199 O.2     1  UNL1        0.0415
     32 O          61.1770   83.9382    4.7251 O.co2   1  UNL1       -0.5760
@<TRIPOS>UNITY_ATOM_ATTR
30 1
charge 1
32 1
charge -1
@<TRIPOS>BOND
     1    17    18    1
     2    18    11    1
     3    11     1    1
     4     1     2   ar
     5     2     3   ar
     6     3     4   ar
     7     4     5   ar
     8     5     6   ar
     9     6    22    1
    10    22    23    1
    11    23    24    1
    12    24    25   ar
    13    25    26   ar
    14    26    27   ar
    15    27    30    1
    16    30    31    2
    17    30    32    1
    18    27    28   ar
    19    28    29   ar
    20     6     7   ar
    21     7     8   ar
    22     8     9   ar
    23     9    10   ar
    24    11    12    1
    25    12    13   ar
    26    13    14   ar
    27    14    15   ar
    28    15    16   ar
    29    18    19    1
    30    19    20    1
    31    19    21    1
    32    10     1   ar
    33    16    12   ar
    34     9     4   ar
    35    29    24   ar
@<TRIPOS>MOLECULE
*****
 32 35 0 0 0
SMALL
GASTEIGER

@<TRIPOS>ATOM
      1 C          61.3894   93.1061    2.1299 C.ar    1  UNL1       -0.0004
      2 C          62.4933   92.2694    2.7055 C.ar    1  UNL1       -0.0024
      3 C          62.2098   91.3328    3.8423 C.ar    1  UNL1       -0.0002
      4 C          60.8223   91.2328    4.4034 C.ar    1  UNL1        0.0030
      5 C          60.5387   90.2961    5.5403 C.ar    1  UNL1        0.0369
      6 C          59.1513   90.1961    6.1014 C.ar    1  UNL1        0.1391
      7 C          58.0473   91.0328    5.5258 C.ar    1  UNL1        0.0369
      8 C          58.3309   91.9695    4.3890 C.ar    1  UNL1        0.0031
      9 C          59.7184   92.0695    3.8278 C.ar    1  UNL1       -0.0001
     10 C          60.0019   93.0061    2.6911 C.ar    1  UNL1       -0.0024
     11 C          61.6730   94.0428    0.9931 C.3     1  UNL1        0.1240
     12 N          63.0579   94.5835    0.7945 N.ar    1  UNL1       -0.3045
     13 C          63.6719   95.7307    1.5407 C.ar    1  UNL1        0.0983
     14 C          65.0655   95.9283    1.0222 C.ar    1  UNL1        0.1193
     15 N          65.3128   94.9031   -0.0445 N.ar    1  UNL1       -0.2223
     16 C          64.0721   94.0720   -0.1852 C.ar    1  UNL1        0.1788
     17 C          59.8060   95.7071    0.2898 C.3     1  UNL1        0.0197
     18 C          60.5716   94.4386    0.0550 C.3     1  UNL1        0.0827
     19 N          60.2356   93.5661   -1.1180 N.3     1  UNL1       -0.2696
     20 C          59.1530   92.5346   -0.9998 C.3     1  UNL1        0.0897
     21 C          60.9823   93.7251   -2.4092 C.3     1  UNL1        0.0897
     22 O          58.8677   89.2595    7.2382 O.3     1  UNL1       -0.4706
     23 C          59.3921   87.8546    7.2011 C.3     1  UNL1        0.2320
     24 C          60.1661   87.3120    8.3658 C.ar    1  UNL1        0.0216
     25 C          59.9524   87.8791    9.7379 C.ar    1  UNL1        0.0056
     26 C          60.7265   87.3365   10.9026 C.ar    1  UNL1        0.0751
     27 C          61.7142   86.2269   10.6951 C.ar    1  UNL1        0.2900
     28 C          61.9280   85.6598    9.3229 C.ar    1  UNL1        0.0751
     29 C          61.1539   86.2024    8.1583 C.ar    1  UNL1        0.0056
     30 N          62.4883   85.6843   11.8598 N.pl3   1  UNL1        0.0809
     31 O          63.1948   86.6222   12.7931 O.2     1  UNL1        0.0415
     32 O          62.5557   84.2038   12.0911 O.co2   1  UNL1       -0.5760
@<TRIPOS>UNITY_ATOM_ATTR
30 1
charge 1
32 1
charge -1
@<TRIPOS>BOND
     1    17    18    1
     2    18    11    1
     3    11     1    1
     4     1     2   ar
     5     2     3   ar
     6     3     4   ar
     7     4     5   ar
     8     5     6   ar
     9     6    22    1
    10    22    23    1
    11    23    24    1
    12    24    25   ar
    13    25    26   ar
    14    26    27   ar
    15    27    30    1
    16    30    31    2
    17    30    32    1
    18    27    28   ar
    19    28    29   ar
    20     6     7   ar
    21     7     8   ar
    22     8     9   ar
    23     9    10   ar
    24    11    12    1
    25    12    13   ar
    26    13    14   ar
    27    14    15   ar
    28    15    16   ar
    29    18    19    1
    30    19    20    1
    31    19    21    1
    32    10     1   ar
    33    16    12   ar
    34     9     4   ar
    35    29    24   ar
@<TRIPOS>MOLECULE
*****
 32 35 0 0 0
SMALL
GASTEIGER

@<TRIPOS>ATOM
      1 C          62.4793   85.8280   11.6522 C.ar    1  UNL1       -0.0004
      2 C          62.8768   87.2308   12.0046 C.ar    1  UNL1       -0.0024
      3 C          62.3447   88.3840   11.2065 C.ar    1  UNL1       -0.0002
      4 C          61.4151   88.1344   10.0560 C.ar    1  UNL1        0.0030
      5 C          60.8831   89.2877    9.2579 C.ar    1  UNL1        0.0369
      6 C          59.9535   89.0381    8.1074 C.ar    1  UNL1        0.1391
      7 C          59.5560   87.6353    7.7550 C.ar    1  UNL1        0.0369
      8 C          60.0881   86.4821    8.5531 C.ar    1  UNL1        0.0031
      9 C          61.0177   86.7316    9.7036 C.ar    1  UNL1       -0.0001
     10 C          61.5497   85.5784   10.5017 C.ar    1  UNL1       -0.0024
     11 C          63.0114   84.6747   12.4503 C.3     1  UNL1        0.1240
     12 N          63.1815   84.8051   13.9349 N.ar    1  UNL1       -0.3045
     13 C          62.1020   84.6435   14.9637 C.ar    1  UNL1        0.0983
     14 C          62.7143   84.8586   16.3160 C.ar    1  UNL1        0.1193
     15 N          64.1724   85.1531   16.1230 N.ar    1  UNL1       -0.2223
     16 C          64.4611   85.1201   14.6514 C.ar    1  UNL1        0.1788
     17 C          64.3205   83.4037   10.6007 C.3     1  UNL1        0.0197
     18 C          63.3733   83.3911   11.7638 C.3     1  UNL1        0.0827
     19 N          62.7880   82.0948   12.2403 N.3     1  UNL1       -0.2696
     20 C          61.9444   82.0637   13.4803 C.3     1  UNL1        0.0897
     21 C          63.0463   80.8297   11.4770 C.3     1  UNL1        0.0897
     22 O          59.4214   90.1913    7.3093 O.3     1  UNL1       -0.4706
     23 C          59.1480   90.0264    5.8437 C.3     1  UNL1        0.2320
     24 C          59.7853   90.9546    4.8527 C.ar    1  UNL1        0.0216
     25 C          58.9627   92.0133    4.1801 C.ar    1  UNL1        0.0056
     26 C          59.6000   92.9416    3.1890 C.ar    1  UNL1        0.0751
     27 C          61.0600   92.8113    2.8707 C.ar    1  UNL1        0.2900
     28 C          61.8827   91.7526    3.5435 C.ar    1  UNL1        0.0751
     29 C          61.2454   90.8243    4.5344 C.ar    1  UNL1        0.0056
     30 N          61.6974   93.7395    1.8798 N.pl3   1  UNL1        0.0809
     31 O          63.1785   93.9742    1.9169 O.2     1  UNL1        0.0415
     32 O          60.8537   94.4331    0.8517 O.co2   1  UNL1       -0.5760
@<TRIPOS>UNITY_ATOM_ATTR
30 1
charge 1
32 1
charge -1
@<TRIPOS>BOND
     1    17    18    1
     2    18    11    1
     3    11     1    1
     4     1     2   ar
     5     2     3   ar
     6     3     4   ar
     7     4     5   ar
     8     5     6   ar
     9     6    22    1
    10    22    23    1
    11    23    24    1
    12    24    25   ar
    13    25    26   ar
    14    26    27   ar
    15    27    30    1
    16    30    31    2
    17    30    32    1
    18    27    28   ar
    19    28    29   ar
    20     6     7   ar
    21     7     8   ar
    22     8     9   ar
    23     9    10   ar
    24    11    12    1
    25    12    13   ar
    26    13    14   ar
    27    14    15   ar
    28    15    16   ar
    29    18    19    1
    30    19    20    1
    31    19    21    1
    32    10     1   ar
    33    16    12   ar
    34     9     4   ar
    35    29    24   ar
@<TRIPOS>MOLECULE
*****
 32 35 0 0 0
SMALL
GASTEIGER

@<TRIPOS>ATOM
      1 C          65.2846   92.5718   11.6192 C.ar    1  UNL1       -0.0004
      2 C          64.6321   92.7686   10.2830 C.ar    1  UNL1       -0.0024
      3 C          63.5922   91.7986    9.8061 C.ar    1  UNL1       -0.0002
      4 C          63.2047   90.6317   10.6654 C.ar    1  UNL1        0.0030
      5 C          62.1648   89.6616   10.1884 C.ar    1  UNL1        0.0369
      6 C          61.7773   88.4948   11.0476 C.ar    1  UNL1        0.1391
      7 C          62.4299   88.2980   12.3839 C.ar    1  UNL1        0.0369
      8 C          63.4698   89.2680   12.8608 C.ar    1  UNL1        0.0031
      9 C          63.8572   90.4349   12.0016 C.ar    1  UNL1       -0.0001
     10 C          64.8972   91.4049   12.4785 C.ar    1  UNL1       -0.0024
     11 C          66.3246   93.5419   12.0963 C.3     1  UNL1        0.1240
     12 N          67.0584   93.2842   13.3789 N.ar    1  UNL1       -0.3045
     13 C          66.7845   93.9420   14.6988 C.ar    1  UNL1        0.0983
     14 C          67.7517   93.3879   15.7025 C.ar    1  UNL1        0.1193
     15 N          68.6234   92.3875   15.0029 N.ar    1  UNL1       -0.2223
     16 C          68.1949   92.3235   13.5668 C.ar    1  UNL1        0.1788
     17 C          66.1241   96.1077   11.7409 C.3     1  UNL1        0.0197
     18 C          66.6307   94.7695   11.2906 C.3     1  UNL1        0.0827
     19 N          67.4435   94.6591   10.0348 N.3     1  UNL1       -0.2696
     20 C          68.2231   93.4088    9.7535 C.3     1  UNL1        0.0897
     21 C          67.4768   95.7989    9.0603 C.3     1  UNL1        0.0897
     22 O          60.7374   87.5247   10.5707 O.3     1  UNL1       -0.4706
     23 C          61.1524   86.2614    9.8765 C.3     1  UNL1        0.2320
     24 C          61.9258   85.2150   10.6227 C.ar    1  UNL1        0.0216
     25 C          62.8263   84.2745    9.8780 C.ar    1  UNL1        0.0056
     26 C          63.5998   83.2280   10.6241 C.ar    1  UNL1        0.0751
     27 C          63.4728   83.1221   12.1150 C.ar    1  UNL1        0.2900
     28 C          62.5723   84.0627   12.8597 C.ar    1  UNL1        0.0751
     29 C          61.7989   85.1091   12.1135 C.ar    1  UNL1        0.0056
     30 N          64.2463   82.0757   12.8611 N.pl3   1  UNL1        0.0809
     31 O          63.7065   81.5164   14.1440 O.2     1  UNL1        0.0415
     32 O          65.5595   81.5886   12.3243 O.co2   1  UNL1       -0.5760
@<TRIPOS>UNITY_ATOM_ATTR
30 1
charge 1
32 1
charge -1
@<TRIPOS>BOND
     1    17    18    1
     2    18    11    1
     3    11     1    1
     4     1     2   ar
     5     2     3   ar
     6     3     4   ar
     7     4     5   ar
     8     5     6   ar
     9     6    22    1
    10    22    23    1
    11    23    24    1
    12    24    25   ar
    13    25    26   ar
    14    26    27   ar
    15    27    30    1
    16    30    31    2
    17    30    32    1
    18    27    28   ar
    19    28    29   ar
    20     6     7   ar
    21     7     8   ar
    22     8     9   ar
    23     9    10   ar
    24    11    12    1
    25    12    13   ar
    26    13    14   ar
    27    14    15   ar
    28    15    16   ar
    29    18    19    1
    30    19    20    1
    31    19    21    1
    32    10     1   ar
    33    16    12   ar
    34     9     4   ar
    35    29    24   ar
@<TRIPOS>MOLECULE
*****
 32 35 0 0 0
SMALL
GASTEIGER

@<TRIPOS>ATOM
      1 C          62.0131   93.9548    0.4645 C.ar    1  UNL1       -0.0004
      2 C          60.6138   94.4785    0.5975 C.ar    1  UNL1       -0.0024
      3 C          59.7358   93.9969    1.7142 C.ar    1  UNL1       -0.0002
      4 C          60.2570   92.9915    2.6978 C.ar    1  UNL1        0.0030
      5 C          59.3788   92.5098    3.8145 C.ar    1  UNL1        0.0369
      6 C          59.9000   91.5044    4.7981 C.ar    1  UNL1        0.1391
      7 C          61.2994   90.9807    4.6651 C.ar    1  UNL1        0.0369
      8 C          62.1774   91.4624    3.5484 C.ar    1  UNL1        0.0031
      9 C          61.6562   92.4678    2.5648 C.ar    1  UNL1       -0.0001
     10 C          62.5343   92.9494    1.4481 C.ar    1  UNL1       -0.0024
     11 C          62.8912   94.4365   -0.6522 C.3     1  UNL1        0.1240
     12 N          64.0495   95.3430   -0.3578 N.ar    1  UNL1       -0.3045
     13 C          64.3039   96.0564    0.9369 C.ar    1  UNL1        0.0983
     14 C          65.5684   96.8496    0.7885 C.ar    1  UNL1        0.1193
     15 N          66.0954   96.6264   -0.5980 N.ar    1  UNL1       -0.2223
     16 C          65.1567   95.6953   -1.3064 C.ar    1  UNL1        0.1788
     17 C          63.4445   92.9415   -2.7038 C.3     1  UNL1        0.0197
     18 C          62.6111   94.0117   -2.0632 C.3     1  UNL1        0.0827
     19 N          61.4975   94.6569   -2.8337 N.3     1  UNL1       -0.2696
     20 C          60.2527   93.8800   -3.1453 C.3     1  UNL1        0.0897
     21 C          61.6287   96.0789   -3.2926 C.3     1  UNL1        0.0897
     22 O          59.0220   91.0228    5.9148 O.3     1  UNL1       -0.4706
     23 C          58.8666   89.5520    6.1657 C.3     1  UNL1        0.2320
     24 C          59.5560   88.9137    7.3350 C.ar    1  UNL1        0.0216
     25 C          59.5485   87.4215    7.4869 C.ar    1  UNL1        0.0056
     26 C          60.2379   86.7831    8.6562 C.ar    1  UNL1        0.0751
     27 C          60.9348   87.6371    9.6736 C.ar    1  UNL1        0.2900
     28 C          60.9423   89.1294    9.5217 C.ar    1  UNL1        0.0751
     29 C          60.2529   89.7677    8.3524 C.ar    1  UNL1        0.0056
     30 N          61.6242   86.9988   10.8429 N.pl3   1  UNL1        0.0809
     31 O          62.4674   87.8315   11.7624 O.2     1  UNL1        0.0415
     32 O          61.4705   85.5278   11.0925 O.co2   1  UNL1       -0.5760
@<TRIPOS>UNITY_ATOM_ATTR
30 1
charge 1
32 1
charge -1
@<TRIPOS>BOND
     1    17    18    1
     2    18    11    1
     3    11     1    1
     4     1     2   ar
     5     2     3   ar
     6     3     4   ar
     7     4     5   ar
     8     5     6   ar
     9     6    22    1
    10    22    23    1
    11    23    24    1
    12    24    25   ar
    13    25    26   ar
    14    26    27   ar
    15    27    30    1
    16    30    31    2
    17    30    32    1
    18    27    28   ar
    19    28    29   ar
    20     6     7   ar
    21     7     8   ar
    22     8     9   ar
    23     9    10   ar
    24    11    12    1
    25    12    13   ar
    26    13    14   ar
    27    14    15   ar
    28    15    16   ar
    29    18    19    1
    30    19    20    1
    31    19    21    1
    32    10     1   ar
    33    16    12   ar
    34     9     4   ar
    35    29    24   ar
