@<TRIPOS>MOLECULE
*****
 26 29 0 0 0
SMALL
GASTEIGER

@<TRIPOS>ATOM
      1 C          58.8431   88.1985    7.3754 C.3     1  UNL1        0.1538
      2 N          59.9548   87.8908    8.3342 N.ar    1  UNL1       -0.2462
      3 C          60.4678   86.5244    8.6800 C.ar    1  UNL1        0.0980
      4 C          61.5787   86.6845    9.6751 C.ar    1  UNL1        0.0522
      5 C          61.7522   88.1499    9.9443 C.ar    1  UNL1        0.1556
      6 N          60.7486   88.8955    9.1156 N.ar    1  UNL1       -0.1539
      7 C          62.3762   85.5742   10.2927 C.ar    1  UNL1        0.0051
      8 C          63.1614   84.6400    9.4206 C.ar    1  UNL1        0.0002
      9 C          63.9589   83.5297   10.0381 C.ar    1  UNL1        0.0009
     10 C          63.9710   83.3535   11.5276 C.ar    1  UNL1        0.0114
     11 C          63.1857   84.2878   12.3998 C.ar    1  UNL1        0.0577
     12 CL         63.1978   84.1117   13.8893 Cl      1  UNL1       -0.0822
     13 C          62.3883   85.3981   11.7823 C.ar    1  UNL1        0.0115
     14 N          62.7536   88.7622   10.8783 N.am    1  UNL1       -0.2643
     15 C          62.2872   89.5279   12.0810 C.2     1  UNL1        0.2552
     16 O          60.8195   89.6811   12.3496 O.2     1  UNL1       -0.2696
     17 H          63.7169   88.6617   10.7020 H       1  UNL1        0.1566
     18 C          63.2885   90.1402   13.0150 C.ar    1  UNL1        0.1102
     19 C          63.4886   89.7750   14.4560 C.ar    1  UNL1        0.1281
     20 N          64.5894   90.6343   15.0034 N.ar    1  UNL1       -0.1619
     21 N          65.0696   91.5307   13.9008 N.ar    1  UNL1       -0.2105
     22 C          66.1351   92.5856   13.8571 C.ar    1  UNL1        0.1037
     23 C          66.3967   93.3350   12.5843 C.ar    1  UNL1        0.0414
     24 C          65.5927   93.0296   11.3554 C.ar    1  UNL1        0.1022
     25 N          64.5272   91.9748   11.3991 N.ar    1  UNL1       -0.2248
     26 C          64.2657   91.2254   12.6718 C.ar    1  UNL1        0.1697
@<TRIPOS>BOND
     1     1     2    1
     2     2     3   ar
     3     3     4   ar
     4     4     7    1
     5     7     8   ar
     6     8     9   ar
     7     9    10   ar
     8    10    11   ar
     9    11    12    1
    10    11    13   ar
    11     4     5   ar
    12     5    14    1
    13    14    15   am
    14    15    16    2
    15    15    18    1
    16    18    19   ar
    17    19    20   ar
    18    20    21   ar
    19    21    22   ar
    20    22    23   ar
    21    23    24   ar
    22    24    25   ar
    23    25    26   ar
    24     5     6   ar
    25     6     2   ar
    26    13     7   ar
    27    26    18   ar
    28    26    21   ar
    29    14    17    1
@<TRIPOS>MOLECULE
*****
 26 29 0 0 0
SMALL
GASTEIGER

@<TRIPOS>ATOM
      1 C          58.9949   88.9190    7.0423 C.3     1  UNL1        0.1538
      2 N          59.9319   88.5956    8.1681 N.ar    1  UNL1       -0.2462
      3 C          60.7221   89.5870    8.9700 C.ar    1  UNL1        0.0980
      4 C          61.5218   88.8282    9.9871 C.ar    1  UNL1        0.0522
      5 C          61.2258   87.3679    9.8139 C.ar    1  UNL1        0.1556
      6 N          60.2433   87.2241    8.6897 N.ar    1  UNL1       -0.1539
      7 C          62.4538   89.4248   10.9997 C.ar    1  UNL1        0.0051
      8 C          62.9572   90.8265   10.8214 C.ar    1  UNL1        0.0002
      9 C          63.8892   91.4232   11.8340 C.ar    1  UNL1        0.0009
     10 C          64.3178   90.6183   13.0249 C.ar    1  UNL1        0.0114
     11 C          63.8143   89.2165   13.2033 C.ar    1  UNL1        0.0577
     12 CL         64.2429   88.4116   14.3941 Cl      1  UNL1       -0.0822
     13 C          62.8823   88.6198   12.1907 C.ar    1  UNL1        0.0115
     14 N          61.8100   86.2479   10.6229 N.am    1  UNL1       -0.2643
     15 C          62.7404   85.2633    9.9787 C.2     1  UNL1        0.2552
     16 O          63.0865   85.3987    8.5255 O.2     1  UNL1       -0.2696
     17 H          61.5828   86.1591   11.5767 H       1  UNL1        0.1566
     18 C          63.3245   84.1433   10.7877 C.ar    1  UNL1        0.1102
     19 C          64.1625   83.0173   10.2586 C.ar    1  UNL1        0.1281
     20 N          64.5291   82.1309   11.4118 N.ar    1  UNL1       -0.1619
     21 N          63.9177   82.7090   12.6536 N.ar    1  UNL1       -0.2105
     22 C          63.9427   82.2636   14.0856 C.ar    1  UNL1        0.1037
     23 C          63.2232   83.0619   15.1320 C.ar    1  UNL1        0.0414
     24 C          62.4788   84.3057   14.7463 C.ar    1  UNL1        0.1022
     25 N          62.4538   84.7511   13.3142 N.ar    1  UNL1       -0.2248
     26 C          63.1732   83.9528   12.2678 C.ar    1  UNL1        0.1697
@<TRIPOS>BOND
     1     1     2    1
     2     2     3   ar
     3     3     4   ar
     4     4     7    1
     5     7     8   ar
     6     8     9   ar
     7     9    10   ar
     8    10    11   ar
     9    11    12    1
    10    11    13   ar
    11     4     5   ar
    12     5    14    1
    13    14    15   am
    14    15    16    2
    15    15    18    1
    16    18    19   ar
    17    19    20   ar
    18    20    21   ar
    19    21    22   ar
    20    22    23   ar
    21    23    24   ar
    22    24    25   ar
    23    25    26   ar
    24     5     6   ar
    25     6     2   ar
    26    13     7   ar
    27    26    18   ar
    28    26    21   ar
    29    14    17    1
@<TRIPOS>MOLECULE
*****
 26 29 0 0 0
SMALL
GASTEIGER

@<TRIPOS>ATOM
      1 C          63.8401   91.4554   12.1528 C.3     1  UNL1        0.1538
      2 N          63.3026   90.1069   11.7753 N.ar    1  UNL1       -0.2462
      3 C          62.5266   89.7833   10.5330 C.ar    1  UNL1        0.0980
      4 C          62.1911   88.3216   10.5637 C.ar    1  UNL1        0.0522
      5 C          62.7596   87.7419   11.8250 C.ar    1  UNL1        0.1556
      6 N          63.4466   88.8453   12.5738 N.ar    1  UNL1       -0.1539
      7 C          61.4220   87.5714    9.5170 C.ar    1  UNL1        0.0051
      8 C          59.9670   87.8651    9.3008 C.ar    1  UNL1        0.0002
      9 C          59.1979   87.1149    8.2541 C.ar    1  UNL1        0.0009
     10 C          59.8837   86.0709    7.4236 C.ar    1  UNL1        0.0114
     11 C          61.3387   85.7771    7.6398 C.ar    1  UNL1        0.0577
     12 CL         62.0246   84.7332    6.8094 Cl      1  UNL1       -0.0822
     13 C          62.1078   86.5274    8.6866 C.ar    1  UNL1        0.0115
     14 N          62.6589   86.3102   12.2609 N.am    1  UNL1       -0.2643
     15 C          63.3488   85.8572   13.5135 C.2     1  UNL1        0.2552
     16 O          64.1394   86.8360   14.3300 O.2     1  UNL1       -0.2696
     17 H          62.1399   85.6678   11.7249 H       1  UNL1        0.1566
     18 C          63.2481   84.4255   13.9494 C.ar    1  UNL1        0.1102
     19 C          63.2058   83.9363   15.3667 C.ar    1  UNL1        0.1281
     20 N          63.1035   82.4401   15.3377 N.ar    1  UNL1       -0.1619
     21 N          63.0826   82.0046   13.9025 N.ar    1  UNL1       -0.2105
     22 C          62.9937   80.6492   13.2661 C.ar    1  UNL1        0.1037
     23 C          62.9942   80.5210   11.7716 C.ar    1  UNL1        0.0414
     24 C          63.0836   81.7480   10.9135 C.ar    1  UNL1        0.1022
     25 N          63.1724   83.1034   11.5500 N.ar    1  UNL1       -0.2248
     26 C          63.1719   83.2317   13.0444 C.ar    1  UNL1        0.1697
@<TRIPOS>BOND
     1     1     2    1
     2     2     3   ar
     3     3     4   ar
     4     4     7    1
     5     7     8   ar
     6     8     9   ar
     7     9    10   ar
     8    10    11   ar
     9    11    12    1
    10    11    13   ar
    11     4     5   ar
    12     5    14    1
    13    14    15   am
    14    15    16    2
    15    15    18    1
    16    18    19   ar
    17    19    20   ar
    18    20    21   ar
    19    21    22   ar
    20    22    23   ar
    21    23    24   ar
    22    24    25   ar
    23    25    26   ar
    24     5     6   ar
    25     6     2   ar
    26    13     7   ar
    27    26    18   ar
    28    26    21   ar
    29    14    17    1
@<TRIPOS>MOLECULE
*****
 26 29 0 0 0
SMALL
GASTEIGER

@<TRIPOS>ATOM
      1 C          65.3817   91.3868   14.9395 C.3     1  UNL1        0.1538
      2 N          64.6197   90.3638   14.1504 N.ar    1  UNL1       -0.2462
      3 C          63.6679   90.6473   13.0262 C.ar    1  UNL1        0.0980
      4 C          63.1356   89.3364   12.5279 C.ar    1  UNL1        0.0522
      5 C          63.7584   88.2428   13.3441 C.ar    1  UNL1        0.1556
      6 N          64.6756   88.8778   14.3469 N.ar    1  UNL1       -0.1539
      7 C          62.1530   89.1515   11.4097 C.ar    1  UNL1        0.0051
      8 C          61.1158   90.2014   11.1415 C.ar    1  UNL1        0.0002
      9 C          60.1333   90.0165   10.0233 C.ar    1  UNL1        0.0009
     10 C          60.1878   88.7819    9.1733 C.ar    1  UNL1        0.0114
     11 C          61.2251   87.7319    9.4415 C.ar    1  UNL1        0.0577
     12 CL         61.2797   86.4973    8.5916 Cl      1  UNL1       -0.0822
     13 C          62.2076   87.9168   10.5597 C.ar    1  UNL1        0.0115
     14 N          63.5079   86.7724   13.1855 N.am    1  UNL1       -0.2643
     15 C          63.4636   85.8845   14.3937 C.2     1  UNL1        0.2552
     16 O          63.6696   86.4670   15.7604 O.2     1  UNL1       -0.2696
     17 H          63.3727   86.3901   12.2884 H       1  UNL1        0.1566
     18 C          63.2131   84.4141   14.2350 C.ar    1  UNL1        0.1102
     19 C          62.7591   83.4756   15.3135 C.ar    1  UNL1        0.1281
     20 N          62.6380   82.1055   14.7149 N.ar    1  UNL1       -0.1619
     21 N          63.0173   82.1972   13.2665 N.ar    1  UNL1       -0.2105
     22 C          63.0849   81.1659   12.1795 C.ar    1  UNL1        0.1037
     23 C          63.5079   81.5614   10.7958 C.ar    1  UNL1        0.0414
     24 C          63.8633   82.9881   10.4992 C.ar    1  UNL1        0.1022
     25 N          63.7957   84.0195   11.5862 N.ar    1  UNL1       -0.2248
     26 C          63.3727   83.6240   12.9699 C.ar    1  UNL1        0.1697
@<TRIPOS>BOND
     1     1     2    1
     2     2     3   ar
     3     3     4   ar
     4     4     7    1
     5     7     8   ar
     6     8     9   ar
     7     9    10   ar
     8    10    11   ar
     9    11    12    1
    10    11    13   ar
    11     4     5   ar
    12     5    14    1
    13    14    15   am
    14    15    16    2
    15    15    18    1
    16    18    19   ar
    17    19    20   ar
    18    20    21   ar
    19    21    22   ar
    20    22    23   ar
    21    23    24   ar
    22    24    25   ar
    23    25    26   ar
    24     5     6   ar
    25     6     2   ar
    26    13     7   ar
    27    26    18   ar
    28    26    21   ar
    29    14    17    1
@<TRIPOS>MOLECULE
*****
 26 29 0 0 0
SMALL
GASTEIGER

@<TRIPOS>ATOM
      1 C          66.5159   93.4184   13.9711 C.3     1  UNL1        0.1538
      2 N          65.5806   92.2460   13.9431 N.ar    1  UNL1       -0.2462
      3 C          65.5340   91.1312   14.9456 C.ar    1  UNL1        0.0980
      4 C          64.4523   90.1788   14.5299 C.ar    1  UNL1        0.0522
      5 C          63.8303   90.7051   13.2705 C.ar    1  UNL1        0.1556
      6 N          64.5276   91.9826   12.9078 N.ar    1  UNL1       -0.1539
      7 C          64.0612   88.9211   15.2476 C.ar    1  UNL1        0.0051
      8 C          63.2677   88.9984   16.5181 C.ar    1  UNL1        0.0002
      9 C          62.8766   87.7406   17.2358 C.ar    1  UNL1        0.0009
     10 C          63.2790   86.4056   16.6830 C.ar    1  UNL1        0.0114
     11 C          64.0726   86.3282   15.4124 C.ar    1  UNL1        0.0577
     12 CL         64.4751   84.9932   14.8596 Cl      1  UNL1       -0.0822
     13 C          64.4637   87.5860   14.6947 C.ar    1  UNL1        0.0115
     14 N          62.7080   90.0659   12.5076 N.am    1  UNL1       -0.2643
     15 C          62.6631   90.1699   11.0118 C.2     1  UNL1        0.2552
     16 O          63.7404   90.9130   10.2791 O.2     1  UNL1       -0.2696
     17 H          62.0010   89.5781   12.9886 H       1  UNL1        0.1566
     18 C          61.5408   89.5307   10.2490 C.ar    1  UNL1        0.1102
     19 C          60.1783   90.1178   10.0277 C.ar    1  UNL1        0.1281
     20 N          59.3795   89.1421    9.2155 N.ar    1  UNL1       -0.1619
     21 N          60.2482   87.9519    8.9347 N.ar    1  UNL1       -0.2105
     22 C          59.9955   86.6806    8.1799 C.ar    1  UNL1        0.1037
     23 C          61.0786   85.6494    8.0639 C.ar    1  UNL1        0.0414
     24 C          62.4144   85.8895    8.7026 C.ar    1  UNL1        0.1022
     25 N          62.6671   87.1609    9.4574 N.ar    1  UNL1       -0.2248
     26 C          61.5840   88.1921    9.5734 C.ar    1  UNL1        0.1697
@<TRIPOS>BOND
     1     1     2    1
     2     2     3   ar
     3     3     4   ar
     4     4     7    1
     5     7     8   ar
     6     8     9   ar
     7     9    10   ar
     8    10    11   ar
     9    11    12    1
    10    11    13   ar
    11     4     5   ar
    12     5    14    1
    13    14    15   am
    14    15    16    2
    15    15    18    1
    16    18    19   ar
    17    19    20   ar
    18    20    21   ar
    19    21    22   ar
    20    22    23   ar
    21    23    24   ar
    22    24    25   ar
    23    25    26   ar
    24     5     6   ar
    25     6     2   ar
    26    13     7   ar
    27    26    18   ar
    28    26    21   ar
    29    14    17    1
@<TRIPOS>MOLECULE
*****
 26 29 0 0 0
SMALL
GASTEIGER

@<TRIPOS>ATOM
      1 C          66.4091   92.7279   16.5311 C.3     1  UNL1        0.1538
      2 N          66.1604   92.5580   15.0616 N.ar    1  UNL1       -0.2462
      3 C          67.0283   93.0788   13.9546 C.ar    1  UNL1        0.0980
      4 C          66.4045   92.6802   12.6500 C.ar    1  UNL1        0.0522
      5 C          65.1510   91.9131   12.9508 C.ar    1  UNL1        0.1556
      6 N          65.0002   91.8376   14.4413 N.ar    1  UNL1       -0.1539
      7 C          66.9400   92.9937   11.2844 C.ar    1  UNL1        0.0051
      8 C          67.8627   92.0286   10.6009 C.ar    1  UNL1        0.0002
      9 C          68.3982   92.3421    9.2353 C.ar    1  UNL1        0.0009
     10 C          68.0111   93.6205    8.5531 C.ar    1  UNL1        0.0114
     11 C          67.0883   94.5857    9.2366 C.ar    1  UNL1        0.0577
     12 CL         66.7011   95.8642    8.5544 Cl      1  UNL1       -0.0822
     13 C          66.5528   94.2723   10.6022 C.ar    1  UNL1        0.0115
     14 N          64.2131   91.3248   11.9388 N.am    1  UNL1       -0.2643
     15 C          63.1807   90.3238   12.3658 C.2     1  UNL1        0.2552
     16 O          63.0864   89.9112   13.8048 O.2     1  UNL1       -0.2696
     17 H          64.2751   91.5956   10.9943 H       1  UNL1        0.1566
     18 C          62.2428   89.7354   11.3538 C.ar    1  UNL1        0.1102
     19 C          61.3295   90.5049   10.4461 C.ar    1  UNL1        0.1281
     20 N          60.5758   89.5193    9.6031 N.ar    1  UNL1       -0.1619
     21 N          61.0233   88.1408    9.9898 N.ar    1  UNL1       -0.2105
     22 C          60.6257   86.7813    9.4964 C.ar    1  UNL1        0.1037
     23 C          61.2584   85.5552   10.0851 C.ar    1  UNL1        0.0414
     24 C          62.2887   85.6888   11.1670 C.ar    1  UNL1        0.1022
     25 N          62.6863   87.0484   11.6604 N.ar    1  UNL1       -0.2248
     26 C          62.0536   88.2744   11.0718 C.ar    1  UNL1        0.1697
@<TRIPOS>BOND
     1     1     2    1
     2     2     3   ar
     3     3     4   ar
     4     4     7    1
     5     7     8   ar
     6     8     9   ar
     7     9    10   ar
     8    10    11   ar
     9    11    12    1
    10    11    13   ar
    11     4     5   ar
    12     5    14    1
    13    14    15   am
    14    15    16    2
    15    15    18    1
    16    18    19   ar
    17    19    20   ar
    18    20    21   ar
    19    21    22   ar
    20    22    23   ar
    21    23    24   ar
    22    24    25   ar
    23    25    26   ar
    24     5     6   ar
    25     6     2   ar
    26    13     7   ar
    27    26    18   ar
    28    26    21   ar
    29    14    17    1
@<TRIPOS>MOLECULE
*****
 26 29 0 0 0
SMALL
GASTEIGER

@<TRIPOS>ATOM
      1 C          66.9780   93.8211   14.5126 C.3     1  UNL1        0.1538
      2 N          66.1379   92.6280   14.1649 N.ar    1  UNL1       -0.2462
      3 C          65.3101   92.4639   12.9248 C.ar    1  UNL1        0.0980
      4 C          64.6387   91.1241   12.9897 C.ar    1  UNL1        0.0522
      5 C          65.0516   90.4603   14.2698 C.ar    1  UNL1        0.1556
      6 N          65.9782   91.3897   14.9962 N.ar    1  UNL1       -0.1539
      7 C          63.7164   90.5491   11.9559 C.ar    1  UNL1        0.0051
      8 C          63.3317   91.3648   10.7573 C.ar    1  UNL1        0.0002
      9 C          62.4093   90.7898    9.7235 C.ar    1  UNL1        0.0009
     10 C          61.8717   89.3993    9.8883 C.ar    1  UNL1        0.0114
     11 C          62.2564   88.5835   11.0870 C.ar    1  UNL1        0.0577
     12 CL         61.7188   87.1930   11.2519 Cl      1  UNL1       -0.0822
     13 C          63.1787   89.1585   12.1208 C.ar    1  UNL1        0.0115
     14 N          64.6146   89.1049   14.7410 N.am    1  UNL1       -0.2643
     15 C          63.6568   88.9826   15.8889 C.2     1  UNL1        0.2552
     16 O          63.1360   90.2158   16.5657 O.2     1  UNL1       -0.2696
     17 H          64.9564   88.2955   14.2967 H       1  UNL1        0.1566
     18 C          63.2198   87.6272   16.3601 C.ar    1  UNL1        0.1102
     19 C          62.6204   87.3098   17.6979 C.ar    1  UNL1        0.1281
     20 N          62.3356   85.8377   17.7407 N.ar    1  UNL1       -0.1619
     21 N          62.7590   85.2453   16.4292 N.ar    1  UNL1       -0.2105
     22 C          62.7176   83.8418   15.9018 C.ar    1  UNL1        0.1037
     23 C          63.2226   83.5442   14.5211 C.ar    1  UNL1        0.0414
     24 C          63.7690   84.6503   13.6678 C.ar    1  UNL1        0.1022
     25 N          63.8105   86.0538   14.1952 N.ar    1  UNL1       -0.2248
     26 C          63.3055   86.3514   15.5759 C.ar    1  UNL1        0.1697
@<TRIPOS>BOND
     1     1     2    1
     2     2     3   ar
     3     3     4   ar
     4     4     7    1
     5     7     8   ar
     6     8     9   ar
     7     9    10   ar
     8    10    11   ar
     9    11    12    1
    10    11    13   ar
    11     4     5   ar
    12     5    14    1
    13    14    15   am
    14    15    16    2
    15    15    18    1
    16    18    19   ar
    17    19    20   ar
    18    20    21   ar
    19    21    22   ar
    20    22    23   ar
    21    23    24   ar
    22    24    25   ar
    23    25    26   ar
    24     5     6   ar
    25     6     2   ar
    26    13     7   ar
    27    26    18   ar
    28    26    21   ar
    29    14    17    1
@<TRIPOS>MOLECULE
*****
 26 29 0 0 0
SMALL
GASTEIGER

@<TRIPOS>ATOM
      1 C          62.7745   79.4581   13.4182 C.3     1  UNL1        0.1538
      2 N          62.6858   80.9469   13.2586 N.ar    1  UNL1       -0.2462
      3 C          62.7193   81.6981   11.9607 C.ar    1  UNL1        0.0980
      4 C          62.6022   83.1614   12.2689 C.ar    1  UNL1        0.0522
      5 C          62.4963   83.3146   13.7573 C.ar    1  UNL1        0.1556
      6 N          62.5480   81.9459   14.3690 N.ar    1  UNL1       -0.1539
      7 C          62.5926   84.2759   11.2650 C.ar    1  UNL1        0.0051
      8 C          63.1693   84.0584    9.8975 C.ar    1  UNL1        0.0002
      9 C          63.1597   85.1729    8.8936 C.ar    1  UNL1        0.0009
     10 C          62.5734   86.5047    9.2571 C.ar    1  UNL1        0.0114
     11 C          61.9966   86.7223   10.6247 C.ar    1  UNL1        0.0577
     12 CL         61.4104   88.0541   10.9882 Cl      1  UNL1       -0.0822
     13 C          62.0062   85.6078   11.6286 C.ar    1  UNL1        0.0115
     14 N          62.3623   84.6091   14.5031 N.am    1  UNL1       -0.2643
     15 C          63.5742   85.2570   15.1047 C.2     1  UNL1        0.2552
     16 O          64.9198   84.6103   14.9606 O.2     1  UNL1       -0.2696
     17 H          61.4791   85.0336   14.5977 H       1  UNL1        0.1566
     18 C          63.4402   86.5516   15.8505 C.ar    1  UNL1        0.1102
     19 C          63.0537   86.7028   17.2920 C.ar    1  UNL1        0.1281
     20 N          63.0438   88.1669   17.6180 N.ar    1  UNL1       -0.1619
     21 N          63.4241   88.9205   16.3781 N.ar    1  UNL1       -0.2105
     22 C          63.5791   90.3868   16.1026 C.ar    1  UNL1        0.1037
     23 C          63.9789   90.8548   14.7348 C.ar    1  UNL1        0.0414
     24 C          64.2239   89.8564   13.6424 C.ar    1  UNL1        0.1022
     25 N          64.0690   88.3901   13.9178 N.ar    1  UNL1       -0.2248
     26 C          63.6691   87.9222   15.2857 C.ar    1  UNL1        0.1697
@<TRIPOS>BOND
     1     1     2    1
     2     2     3   ar
     3     3     4   ar
     4     4     7    1
     5     7     8   ar
     6     8     9   ar
     7     9    10   ar
     8    10    11   ar
     9    11    12    1
    10    11    13   ar
    11     4     5   ar
    12     5    14    1
    13    14    15   am
    14    15    16    2
    15    15    18    1
    16    18    19   ar
    17    19    20   ar
    18    20    21   ar
    19    21    22   ar
    20    22    23   ar
    21    23    24   ar
    22    24    25   ar
    23    25    26   ar
    24     5     6   ar
    25     6     2   ar
    26    13     7   ar
    27    26    18   ar
    28    26    21   ar
    29    14    17    1
@<TRIPOS>MOLECULE
*****
 26 29 0 0 0
SMALL
GASTEIGER

@<TRIPOS>ATOM
      1 C          62.9374   83.3745   15.3160 C.3     1  UNL1        0.1538
      2 N          62.9205   84.3310   14.1607 N.ar    1  UNL1       -0.2462
      3 C          62.4453   84.0266   12.7709 C.ar    1  UNL1        0.0980
      4 C          62.6070   85.2673   11.9436 C.ar    1  UNL1        0.0522
      5 C          63.1822   86.3385   12.8220 C.ar    1  UNL1        0.1556
      6 N          63.3760   85.7599   14.1923 N.ar    1  UNL1       -0.1539
      7 C          62.2553   85.4115   10.4925 C.ar    1  UNL1        0.0051
      8 C          63.1506   84.8243    9.4419 C.ar    1  UNL1        0.0002
      9 C          62.7989   84.9685    7.9909 C.ar    1  UNL1        0.0009
     10 C          61.5521   85.6998    7.5904 C.ar    1  UNL1        0.0114
     11 C          60.6567   86.2870    8.6411 C.ar    1  UNL1        0.0577
     12 CL         59.4099   87.0183    8.2407 Cl      1  UNL1       -0.0822
     13 C          61.0084   86.1428   10.0921 C.ar    1  UNL1        0.0115
     14 N          63.5067   87.7419   12.4036 N.am    1  UNL1       -0.2643
     15 C          63.8628   88.7693   13.4370 C.2     1  UNL1        0.2552
     16 O          63.8944   88.3931   14.8887 O.2     1  UNL1       -0.2696
     17 H          63.4859   87.9888   11.4508 H       1  UNL1        0.1566
     18 C          64.1873   90.1728   13.0186 C.ar    1  UNL1        0.1102
     19 C          63.5525   90.9243   11.8863 C.ar    1  UNL1        0.1281
     20 N          64.1764   92.2870   11.8270 N.ar    1  UNL1       -0.1619
     21 N          65.1968   92.3778   12.9227 N.ar    1  UNL1       -0.2105
     22 C          66.1206   93.4815   13.3450 C.ar    1  UNL1        0.1037
     23 C          67.0512   93.2784   14.5037 C.ar    1  UNL1        0.0414
     24 C          67.0579   91.9717   15.2402 C.ar    1  UNL1        0.1022
     25 N          66.1341   90.8680   14.8180 N.ar    1  UNL1       -0.2248
     26 C          65.2035   91.0711   13.6592 C.ar    1  UNL1        0.1697
@<TRIPOS>BOND
     1     1     2    1
     2     2     3   ar
     3     3     4   ar
     4     4     7    1
     5     7     8   ar
     6     8     9   ar
     7     9    10   ar
     8    10    11   ar
     9    11    12    1
    10    11    13   ar
    11     4     5   ar
    12     5    14    1
    13    14    15   am
    14    15    16    2
    15    15    18    1
    16    18    19   ar
    17    19    20   ar
    18    20    21   ar
    19    21    22   ar
    20    22    23   ar
    21    23    24   ar
    22    24    25   ar
    23    25    26   ar
    24     5     6   ar
    25     6     2   ar
    26    13     7   ar
    27    26    18   ar
    28    26    21   ar
    29    14    17    1
