@<TRIPOS>MOLECULE
*****
 31 33 0 0 0
SMALL
GASTEIGER

@<TRIPOS>ATOM
      1 C          63.5721   90.3017   14.2342 C.ar    1  UNL1        0.0659
      2 C          62.8937   89.9803   12.9356 C.ar    1  UNL1        0.0360
      3 S          63.4910   90.8532   11.8720 S.2     1  UNL1       -0.0718
      4 C          64.5386   91.7142   12.5133 C.ar    1  UNL1        0.0983
      5 C          64.5887   91.3734   13.9733 C.ar    1  UNL1        0.0830
      6 C          65.5535   92.0829   14.8764 C.ar    1  UNL1        0.2663
      7 O          65.6037   91.7421   16.3363 O.2     1  UNL1       -0.2668
      8 N          66.4683   93.1333   14.3195 N.ar    1  UNL1       -0.2467
      9 C          67.4332   93.8428   15.2227 C.3     1  UNL1        0.1382
     10 C          66.4182   93.4741   12.8597 C.ar    1  UNL1        0.3342
     11 O          67.3329   94.5245   12.3029 O.2     1  UNL1       -0.2462
     12 N          65.4533   92.7646   11.9566 N.ar    1  UNL1       -0.2757
     13 N          63.5020   88.1913   15.7479 N.am    1  UNL1       -0.1628
     14 C          63.2143   87.5532   17.0746 C.3     1  UNL1        0.1484
     15 C          63.2844   89.6636   15.5609 C.2     1  UNL1        0.2717
     16 O          62.7792   90.4977   16.7006 O.2     1  UNL1       -0.2678
     17 C          64.5974   86.0038   14.8733 C.3     1  UNL1        0.2059
     18 O          64.0073   87.3571   14.6082 O.3     1  UNL1       -0.2600
     19 C          61.8086   88.9642   12.7356 C.3     1  UNL1        0.1413
     20 N          61.4297   88.5345   11.3493 N.ar    1  UNL1       -0.3007
     21 C          61.8025   87.2369   10.6957 C.ar    1  UNL1        0.1226
     22 C          62.6196   86.1412   11.3135 C.3     1  UNL1        0.0719
     23 N          61.2146   87.2274    9.3156 N.ar    1  UNL1       -0.2186
     24 C          60.4786   88.5192    9.1165 C.ar    1  UNL1        0.1661
     25 CL         59.7394   88.9308    7.8779 Cl      1  UNL1       -0.0588
     26 C          60.6115   89.3270   10.3734 C.ar    1  UNL1        0.1487
     27 CL         60.0284   90.6882   10.6122 Cl      1  UNL1       -0.0606
     28 C          65.4032   93.1055   10.4967 C.3     1  UNL1        0.1109
     29 C          66.6766   93.2857    9.7244 C.3     1  UNL1        0.0228
     30 C          67.7045   92.1936    9.7077 C.3     1  UNL1        0.0020
     31 C          66.9217   94.5582    8.9691 C.3     1  UNL1        0.0020
@<TRIPOS>BOND
     1    17    18    1
     2    18    13    1
     3    13    14    1
     4    13    15   am
     5    15    16    2
     6    15     1    1
     7     1     2   ar
     8     2    19    1
     9    19    20    1
    10    20    21   ar
    11    21    22    1
    12    21    23   ar
    13    23    24   ar
    14    24    25    1
    15    24    26   ar
    16    26    27    1
    17     2     3   ar
    18     3     4   ar
    19     4     5   ar
    20     5     6   ar
    21     6     7    2
    22     6     8   ar
    23     8     9    1
    24     8    10   ar
    25    10    11    2
    26    10    12   ar
    27    12    28    1
    28    28    29    1
    29    29    30    1
    30    29    31    1
    31     5     1   ar
    32    26    20   ar
    33    12     4   ar
@<TRIPOS>MOLECULE
*****
 31 33 0 0 0
SMALL
GASTEIGER

@<TRIPOS>ATOM
      1 C          62.8444   89.0111   11.7179 C.ar    1  UNL1        0.0659
      2 C          63.3800   89.7563   12.9045 C.ar    1  UNL1        0.0360
      3 S          63.8233   88.7486   13.9233 S.2     1  UNL1       -0.0718
      4 C          63.5618   87.3806   13.3664 C.ar    1  UNL1        0.0983
      5 C          62.9568   87.5428   12.0035 C.ar    1  UNL1        0.0830
      6 C          62.5864   86.3326   11.1984 C.ar    1  UNL1        0.2663
      7 O          61.9814   86.4948    9.8354 O.2     1  UNL1       -0.2668
      8 N          62.8211   84.9601   11.7564 N.ar    1  UNL1       -0.2467
      9 C          62.4506   83.7498   10.9513 C.3     1  UNL1        0.1382
     10 C          63.4260   84.7979   13.1193 C.ar    1  UNL1        0.3342
     11 O          63.6606   83.4254   13.6773 O.2     1  UNL1       -0.2462
     12 N          63.7964   86.0081   13.9243 N.ar    1  UNL1       -0.2757
     13 N          60.8473   89.4408   10.1128 N.am    1  UNL1       -0.1628
     14 C          60.2961   90.0559    8.8606 C.3     1  UNL1        0.1484
     15 C          62.2933   89.6262   10.4658 C.2     1  UNL1        0.2717
     16 O          63.1881   90.4266    9.5666 O.2     1  UNL1       -0.2678
     17 C          59.2733   89.3007   12.1751 C.3     1  UNL1        0.2059
     18 O          59.9523   88.6404   11.0120 O.3     1  UNL1       -0.2600
     19 C          63.4584   91.2475   13.0472 C.3     1  UNL1        0.1413
     20 N          64.7669   91.9014   13.3792 N.ar    1  UNL1       -0.3007
     21 C          65.7370   92.4830   12.3939 C.ar    1  UNL1        0.1226
     22 C          65.5689   92.5128   10.9037 C.3     1  UNL1        0.0719
     23 N          66.9047   93.0295   13.1607 N.ar    1  UNL1       -0.2186
     24 C          66.6562   92.7856   14.6197 C.ar    1  UNL1        0.1661
     25 CL         67.5688   93.1713   15.7460 Cl      1  UNL1       -0.0588
     26 C          65.3350   92.0884   14.7548 C.ar    1  UNL1        0.1487
     27 CL         64.6945   91.6545   16.0399 Cl      1  UNL1       -0.0606
     28 C          64.4014   85.8459   15.2873 C.3     1  UNL1        0.1109
     29 C          63.5161   85.7545   16.4948 C.3     1  UNL1        0.0228
     30 C          62.8816   84.4461   16.8623 C.3     1  UNL1        0.0020
     31 C          63.2655   86.9718   17.3348 C.3     1  UNL1        0.0020
@<TRIPOS>BOND
     1    17    18    1
     2    18    13    1
     3    13    14    1
     4    13    15   am
     5    15    16    2
     6    15     1    1
     7     1     2   ar
     8     2    19    1
     9    19    20    1
    10    20    21   ar
    11    21    22    1
    12    21    23   ar
    13    23    24   ar
    14    24    25    1
    15    24    26   ar
    16    26    27    1
    17     2     3   ar
    18     3     4   ar
    19     4     5   ar
    20     5     6   ar
    21     6     7    2
    22     6     8   ar
    23     8     9    1
    24     8    10   ar
    25    10    11    2
    26    10    12   ar
    27    12    28    1
    28    28    29    1
    29    29    30    1
    30    29    31    1
    31     5     1   ar
    32    26    20   ar
    33    12     4   ar
@<TRIPOS>MOLECULE
*****
 31 33 0 0 0
SMALL
GASTEIGER

@<TRIPOS>ATOM
      1 C          62.2682   87.9965   10.7924 C.ar    1  UNL1        0.0659
      2 C          62.3228   86.9411   11.8569 C.ar    1  UNL1        0.0360
      3 S          63.0916   87.4948   13.0198 S.2     1  UNL1       -0.0718
      4 C          63.5123   88.8925   12.6740 C.ar    1  UNL1        0.0983
      5 C          63.0034   89.2025   11.2974 C.ar    1  UNL1        0.0830
      6 C          63.2751   90.5430   10.6816 C.ar    1  UNL1        0.2663
      7 O          62.7663   90.8531    9.3050 O.2     1  UNL1       -0.2668
      8 N          64.0558   91.5735   11.4424 N.ar    1  UNL1       -0.2467
      9 C          64.3276   92.9141   10.8266 C.3     1  UNL1        0.1382
     10 C          64.5647   91.2634   12.8189 C.ar    1  UNL1        0.3342
     11 O          65.3454   92.2939   13.5797 O.2     1  UNL1       -0.2462
     12 N          64.2929   89.9230   13.4347 N.ar    1  UNL1       -0.2757
     13 N          60.4061   88.7209    9.1319 N.am    1  UNL1       -0.1628
     14 C          59.7343   88.5928    7.7968 C.3     1  UNL1        0.1484
     15 C          61.5965   87.8684    9.4574 C.2     1  UNL1        0.2717
     16 O          62.1152   86.8877    8.4478 O.2     1  UNL1       -0.2678
     17 C          59.3736   89.2154   11.4642 C.3     1  UNL1        0.2059
     18 O          59.8873   89.7016   10.1414 O.3     1  UNL1       -0.2600
     19 C          61.7152   85.5722   11.7732 C.3     1  UNL1        0.1413
     20 N          62.5803   84.3568   11.9294 N.ar    1  UNL1       -0.3007
     21 C          63.4203   83.7288   10.8570 C.ar    1  UNL1        0.1226
     22 C          63.5427   84.2058    9.4402 C.3     1  UNL1        0.0719
     23 N          64.1164   82.5398   11.4503 N.ar    1  UNL1       -0.2186
     24 C          63.7066   82.4332   12.8893 C.ar    1  UNL1        0.1661
     25 CL         64.1657   81.3872   13.8615 Cl      1  UNL1       -0.0588
     26 C          62.7573   83.5561   13.1854 C.ar    1  UNL1        0.1487
     27 CL         62.1003   83.8301   14.5057 Cl      1  UNL1       -0.0606
     28 C          64.8018   89.6129   14.8113 C.3     1  UNL1        0.1109
     29 C          63.9440   89.8948   16.0092 C.3     1  UNL1        0.0228
     30 C          63.1646   88.7857   16.6511 C.3     1  UNL1        0.0020
     31 C          63.8657   91.2858   16.5649 C.3     1  UNL1        0.0020
@<TRIPOS>BOND
     1    17    18    1
     2    18    13    1
     3    13    14    1
     4    13    15   am
     5    15    16    2
     6    15     1    1
     7     1     2   ar
     8     2    19    1
     9    19    20    1
    10    20    21   ar
    11    21    22    1
    12    21    23   ar
    13    23    24   ar
    14    24    25    1
    15    24    26   ar
    16    26    27    1
    17     2     3   ar
    18     3     4   ar
    19     4     5   ar
    20     5     6   ar
    21     6     7    2
    22     6     8   ar
    23     8     9    1
    24     8    10   ar
    25    10    11    2
    26    10    12   ar
    27    12    28    1
    28    28    29    1
    29    29    30    1
    30    29    31    1
    31     5     1   ar
    32    26    20   ar
    33    12     4   ar
@<TRIPOS>MOLECULE
*****
 31 33 0 0 0
SMALL
GASTEIGER

@<TRIPOS>ATOM
      1 C          63.1239   89.2595   12.0671 C.ar    1  UNL1        0.0659
      2 C          63.3686   88.5372   13.3588 C.ar    1  UNL1        0.0360
      3 S          64.3304   89.3529   14.1710 S.2     1  UNL1       -0.0718
      4 C          64.6800   90.5793   13.3813 C.ar    1  UNL1        0.0983
      5 C          63.9343   90.5216   12.0810 C.ar    1  UNL1        0.0830
      6 C          64.0897   91.6257   11.0777 C.ar    1  UNL1        0.2663
      7 O          63.3440   91.5680    9.7774 O.2     1  UNL1       -0.2668
      8 N          64.9908   92.7876   11.3746 N.ar    1  UNL1       -0.2467
      9 C          65.1461   93.8918   10.3712 C.3     1  UNL1        0.1382
     10 C          65.7364   92.8453   12.6748 C.ar    1  UNL1        0.3342
     11 O          66.6375   94.0072   12.9718 O.2     1  UNL1       -0.2462
     12 N          65.5811   91.7412   13.6782 N.ar    1  UNL1       -0.2757
     13 N          60.7370   88.8984   11.1067 N.am    1  UNL1       -0.1628
     14 C          59.8393   88.4392    9.9961 C.3     1  UNL1        0.1484
     15 C          62.2262   88.8003   10.9565 C.2     1  UNL1        0.2717
     16 O          62.8178   88.2430    9.6958 O.2     1  UNL1       -0.2678
     17 C          58.7242   89.1428   12.7312 C.3     1  UNL1        0.2059
     18 O          60.1454   89.4558   12.3674 O.3     1  UNL1       -0.2600
     19 C          62.7587   87.2289   13.7667 C.3     1  UNL1        0.1413
     20 N          63.3661   85.9398   13.2983 N.ar    1  UNL1       -0.3007
     21 C          64.5336   85.2364   13.9247 C.ar    1  UNL1        0.1226
     22 C          65.2985   85.6985   15.1294 C.3     1  UNL1        0.0719
     23 N          64.8017   83.9896   13.1349 N.ar    1  UNL1       -0.2186
     24 C          63.8000   83.9226   12.0204 C.ar    1  UNL1        0.1661
     25 CL         63.7026   82.8403   10.9864 Cl      1  UNL1       -0.0588
     26 C          62.9128   85.1279   12.1214 C.ar    1  UNL1        0.1487
     27 CL         61.7724   85.4624   11.2061 Cl      1  UNL1       -0.0606
     28 C          66.3267   91.7990   14.9784 C.3     1  UNL1        0.1109
     29 C          67.8199   91.9427   14.9810 C.3     1  UNL1        0.0228
     30 C          68.6089   91.5957   13.7534 C.3     1  UNL1        0.0020
     31 C          68.5239   92.4335   16.2112 C.3     1  UNL1        0.0020
@<TRIPOS>BOND
     1    17    18    1
     2    18    13    1
     3    13    14    1
     4    13    15   am
     5    15    16    2
     6    15     1    1
     7     1     2   ar
     8     2    19    1
     9    19    20    1
    10    20    21   ar
    11    21    22    1
    12    21    23   ar
    13    23    24   ar
    14    24    25    1
    15    24    26   ar
    16    26    27    1
    17     2     3   ar
    18     3     4   ar
    19     4     5   ar
    20     5     6   ar
    21     6     7    2
    22     6     8   ar
    23     8     9    1
    24     8    10   ar
    25    10    11    2
    26    10    12   ar
    27    12    28    1
    28    28    29    1
    29    29    30    1
    30    29    31    1
    31     5     1   ar
    32    26    20   ar
    33    12     4   ar
@<TRIPOS>MOLECULE
*****
 31 33 0 0 0
SMALL
GASTEIGER

@<TRIPOS>ATOM
      1 C          62.7936   88.7188   11.7222 C.ar    1  UNL1        0.0659
      2 C          63.2719   89.6123   12.8280 C.ar    1  UNL1        0.0360
      3 S          63.6977   88.7438   13.9745 S.2     1  UNL1       -0.0718
      4 C          63.4825   87.3134   13.5772 C.ar    1  UNL1        0.0983
      5 C          62.9237   87.2980   12.1853 C.ar    1  UNL1        0.0830
      6 C          62.6056   85.9922   11.5192 C.ar    1  UNL1        0.2663
      7 O          62.0468   85.9767   10.1272 O.2     1  UNL1       -0.2668
      8 N          62.8463   84.7018   12.2452 N.ar    1  UNL1       -0.2467
      9 C          62.5281   83.3959   11.5791 C.3     1  UNL1        0.1382
     10 C          63.4050   84.7172   13.6371 C.ar    1  UNL1        0.3342
     11 O          63.6457   83.4268   14.3630 O.2     1  UNL1       -0.2462
     12 N          63.7232   86.0231   14.3031 N.ar    1  UNL1       -0.2757
     13 N          60.8240   88.9987   10.0512 N.am    1  UNL1       -0.1628
     14 C          60.3063   89.4472    8.7167 C.3     1  UNL1        0.1484
     15 C          62.2759   89.1673   10.3877 C.2     1  UNL1        0.2717
     16 O          63.2103   89.7845    9.3897 O.2     1  UNL1       -0.2678
     17 C          59.2614   89.2311   12.1139 C.3     1  UNL1        0.2059
     18 O          59.8895   88.3815   11.0492 O.3     1  UNL1       -0.2600
     19 C          63.3167   91.1113   12.7935 C.3     1  UNL1        0.1413
     20 N          64.6123   91.8169   12.5226 N.ar    1  UNL1       -0.3007
     21 C          65.7205   92.0352   13.5096 C.ar    1  UNL1        0.1226
     22 C          65.7277   91.5863   14.9408 C.3     1  UNL1        0.0719
     23 N          66.8204   92.7814   12.8141 N.ar    1  UNL1       -0.2186
     24 C          66.3918   93.0241   11.3973 C.ar    1  UNL1        0.1661
     25 CL         67.1881   93.7377   10.3453 Cl      1  UNL1       -0.0588
     26 C          65.0272   92.4281   11.2171 C.ar    1  UNL1        0.1487
     27 CL         64.2193   92.4410    9.9532 Cl      1  UNL1       -0.0606
     28 C          64.2820   86.0385   15.6951 C.3     1  UNL1        0.1109
     29 C          63.3898   86.3577   16.8580 C.3     1  UNL1        0.0228
     30 C          62.6527   85.2573   17.5619 C.3     1  UNL1        0.0020
     31 C          63.2348   87.7774   17.3167 C.3     1  UNL1        0.0020
@<TRIPOS>BOND
     1    17    18    1
     2    18    13    1
     3    13    14    1
     4    13    15   am
     5    15    16    2
     6    15     1    1
     7     1     2   ar
     8     2    19    1
     9    19    20    1
    10    20    21   ar
    11    21    22    1
    12    21    23   ar
    13    23    24   ar
    14    24    25    1
    15    24    26   ar
    16    26    27    1
    17     2     3   ar
    18     3     4   ar
    19     4     5   ar
    20     5     6   ar
    21     6     7    2
    22     6     8   ar
    23     8     9    1
    24     8    10   ar
    25    10    11    2
    26    10    12   ar
    27    12    28    1
    28    28    29    1
    29    29    30    1
    30    29    31    1
    31     5     1   ar
    32    26    20   ar
    33    12     4   ar
@<TRIPOS>MOLECULE
*****
 31 33 0 0 0
SMALL
GASTEIGER

@<TRIPOS>ATOM
      1 C          63.1705   85.9794   12.8998 C.ar    1  UNL1        0.0659
      2 C          63.0625   84.6072   12.3037 C.ar    1  UNL1        0.0360
      3 S          62.3725   84.7308   10.9775 S.2     1  UNL1       -0.0718
      4 C          62.0540   86.1795   10.7541 C.ar    1  UNL1        0.0983
      5 C          62.5472   86.9511   11.9421 C.ar    1  UNL1        0.0830
      6 C          62.3651   88.4389   11.9983 C.ar    1  UNL1        0.2663
      7 O          62.8583   89.2107   13.1863 O.2     1  UNL1       -0.2668
      8 N          61.6897   89.1551   10.8664 N.ar    1  UNL1       -0.2467
      9 C          61.5075   90.6430   10.9227 C.3     1  UNL1        0.1382
     10 C          61.1965   88.3835    9.6785 C.ar    1  UNL1        0.3342
     11 O          60.5211   89.0997    8.5467 O.2     1  UNL1       -0.2462
     12 N          61.3786   86.8957    9.6223 N.ar    1  UNL1       -0.2757
     13 N          63.1710   85.8235   15.4932 N.am    1  UNL1       -0.1628
     14 C          63.7931   86.1642   16.8149 C.3     1  UNL1        0.1484
     15 C          63.7926   86.3200   14.2215 C.2     1  UNL1        0.2717
     16 O          65.0362   87.1571   14.2716 O.2     1  UNL1       -0.2678
     17 C          61.9979   83.5194   15.7478 C.3     1  UNL1        0.2059
     18 O          61.9273   84.9864   15.4431 O.3     1  UNL1       -0.2600
     19 C          63.5576   83.3346   12.9246 C.3     1  UNL1        0.1413
     20 N          63.2109   82.0133   12.3050 N.ar    1  UNL1       -0.3007
     21 C          62.4258   80.9132   12.9557 C.ar    1  UNL1        0.1226
     22 C          61.8495   80.9413   14.3402 C.3     1  UNL1        0.0719
     23 N          62.3182   79.7801   11.9786 N.ar    1  UNL1       -0.2186
     24 C          63.0369   80.1800   10.7242 C.ar    1  UNL1        0.1661
     25 CL         63.1788   79.3460    9.4855 Cl      1  UNL1       -0.0588
     26 C          63.5886   81.5602   10.9259 C.ar    1  UNL1        0.1487
     27 CL         64.3791   82.3486    9.9242 Cl      1  UNL1       -0.0606
     28 C          60.8854   86.1241    8.4343 C.3     1  UNL1        0.1109
     29 C          61.8576   85.3821    7.5656 C.3     1  UNL1        0.0228
     30 C          61.3696   84.6458    6.3534 C.3     1  UNL1        0.0020
     31 C          63.3176   85.3765    7.9094 C.3     1  UNL1        0.0020
@<TRIPOS>BOND
     1    17    18    1
     2    18    13    1
     3    13    14    1
     4    13    15   am
     5    15    16    2
     6    15     1    1
     7     1     2   ar
     8     2    19    1
     9    19    20    1
    10    20    21   ar
    11    21    22    1
    12    21    23   ar
    13    23    24   ar
    14    24    25    1
    15    24    26   ar
    16    26    27    1
    17     2     3   ar
    18     3     4   ar
    19     4     5   ar
    20     5     6   ar
    21     6     7    2
    22     6     8   ar
    23     8     9    1
    24     8    10   ar
    25    10    11    2
    26    10    12   ar
    27    12    28    1
    28    28    29    1
    29    29    30    1
    30    29    31    1
    31     5     1   ar
    32    26    20   ar
    33    12     4   ar
@<TRIPOS>MOLECULE
*****
 31 33 0 0 0
SMALL
GASTEIGER

@<TRIPOS>ATOM
      1 C          63.2684   85.9946   13.0100 C.ar    1  UNL1        0.0659
      2 C          62.3952   85.6772   11.8324 C.ar    1  UNL1        0.0360
      3 S          62.0791   86.9641   11.1295 S.2     1  UNL1       -0.0718
      4 C          62.7569   88.0768   11.8728 C.ar    1  UNL1        0.0983
      5 C          63.4919   87.4776   13.0350 C.ar    1  UNL1        0.0830
      6 C          64.2697   88.3598   13.9659 C.ar    1  UNL1        0.2663
      7 O          65.0048   87.7607   15.1282 O.2     1  UNL1       -0.2668
      8 N          64.3126   89.8413   13.7346 N.ar    1  UNL1       -0.2467
      9 C          65.0905   90.7236   14.6655 C.3     1  UNL1        0.1382
     10 C          63.5776   90.4405   12.5724 C.ar    1  UNL1        0.3342
     11 O          63.6204   91.9220   12.3411 O.2     1  UNL1       -0.2462
     12 N          62.7997   89.5583   11.6415 N.ar    1  UNL1       -0.2757
     13 N          63.1235   84.7730   15.2984 N.am    1  UNL1       -0.1628
     14 C          63.6761   83.7814   16.2789 C.3     1  UNL1        0.1484
     15 C          63.8210   85.0030   13.9906 C.2     1  UNL1        0.2717
     16 O          65.0711   84.2414   13.6632 O.2     1  UNL1       -0.2678
     17 C          61.7670   86.2795   16.9234 C.3     1  UNL1        0.2059
     18 O          61.8733   85.5346   15.6258 O.3     1  UNL1       -0.2600
     19 C          61.9214   84.3126   11.4284 C.3     1  UNL1        0.1413
     20 N          62.7090   83.0982   11.8221 N.ar    1  UNL1       -0.3007
     21 C          63.9242   82.5695   11.1194 C.ar    1  UNL1        0.1226
     22 C          64.5651   83.1622    9.8997 C.3     1  UNL1        0.0719
     23 N          64.3858   81.3438   11.8506 N.ar    1  UNL1       -0.2186
     24 C          63.4559   81.1151   13.0052 C.ar    1  UNL1        0.1661
     25 CL         63.5466   79.9982   14.0023 Cl      1  UNL1       -0.0588
     26 C          62.4196   82.1994   12.9876 C.ar    1  UNL1        0.1487
     27 CL         61.2919   82.3570   13.9641 Cl      1  UNL1       -0.0606
     28 C          62.0647   90.1575   10.4793 C.3     1  UNL1        0.1109
     29 C          60.5868   89.9446   10.3362 C.3     1  UNL1        0.0228
     30 C          59.6545   90.4053   11.4171 C.3     1  UNL1        0.0020
     31 C          60.0413   89.2709    9.1120 C.3     1  UNL1        0.0020
@<TRIPOS>BOND
     1    17    18    1
     2    18    13    1
     3    13    14    1
     4    13    15   am
     5    15    16    2
     6    15     1    1
     7     1     2   ar
     8     2    19    1
     9    19    20    1
    10    20    21   ar
    11    21    22    1
    12    21    23   ar
    13    23    24   ar
    14    24    25    1
    15    24    26   ar
    16    26    27    1
    17     2     3   ar
    18     3     4   ar
    19     4     5   ar
    20     5     6   ar
    21     6     7    2
    22     6     8   ar
    23     8     9    1
    24     8    10   ar
    25    10    11    2
    26    10    12   ar
    27    12    28    1
    28    28    29    1
    29    29    30    1
    30    29    31    1
    31     5     1   ar
    32    26    20   ar
    33    12     4   ar
@<TRIPOS>MOLECULE
*****
 31 33 0 0 0
SMALL
GASTEIGER

@<TRIPOS>ATOM
      1 C          63.4570   85.5999   13.3652 C.ar    1  UNL1        0.0659
      2 C          62.8330   84.4215   12.6782 C.ar    1  UNL1        0.0360
      3 S          62.0925   84.9250   11.4749 S.2     1  UNL1       -0.0718
      4 C          62.2588   86.4147   11.4180 C.ar    1  UNL1        0.0983
      5 C          63.1022   86.8318   12.5863 C.ar    1  UNL1        0.0830
      6 C          63.4381   88.2794   12.7900 C.ar    1  UNL1        0.2663
      7 O          64.2814   88.6966   13.9582 O.2     1  UNL1       -0.2668
      8 N          62.9305   89.3100   11.8253 N.ar    1  UNL1       -0.2467
      9 C          63.2664   90.7577   12.0289 C.3     1  UNL1        0.1382
     10 C          62.0873   88.8929   10.6571 C.ar    1  UNL1        0.3342
     11 O          61.5798   89.9234    9.6924 O.2     1  UNL1       -0.2462
     12 N          61.7514   87.4452   10.4534 N.ar    1  UNL1       -0.2757
     13 N          63.6256   85.5208   15.9565 N.am    1  UNL1       -0.1628
     14 C          64.4583   85.4753   17.2034 C.3     1  UNL1        0.1484
     15 C          64.2897   85.5545   14.6120 C.2     1  UNL1        0.2717
     16 O          65.7864   85.5428   14.5143 O.2     1  UNL1       -0.2678
     17 C          61.4479   86.4485   17.0275 C.3     1  UNL1        0.2059
     18 O          62.1288   85.5324   16.0543 O.3     1  UNL1       -0.2600
     19 C          62.9320   82.9907   13.1176 C.3     1  UNL1        0.1413
     20 N          63.0585   81.8995   12.0961 N.ar    1  UNL1       -0.3007
     21 C          63.7204   82.0193   10.7554 C.ar    1  UNL1        0.1226
     22 C          64.3720   83.2512   10.2007 C.3     1  UNL1        0.0719
     23 N          63.6162   80.6907   10.0667 N.ar    1  UNL1       -0.2186
     24 C          62.8900   79.7500   10.9819 C.ar    1  UNL1        0.1661
     25 CL         62.5654   78.3142   10.6934 Cl      1  UNL1       -0.0588
     26 C          62.5453   80.4971   12.2361 C.ar    1  UNL1        0.1487
     27 CL         61.8155   79.9394   13.4220 Cl      1  UNL1       -0.0606
     28 C          60.9080   87.0281    9.2852 C.3     1  UNL1        0.1109
     29 C          61.4630   86.0865    8.2577 C.3     1  UNL1        0.0228
     30 C          60.5504   85.4544    7.2491 C.3     1  UNL1        0.0020
     31 C          62.9306   85.7771    8.2392 C.3     1  UNL1        0.0020
@<TRIPOS>BOND
     1    17    18    1
     2    18    13    1
     3    13    14    1
     4    13    15   am
     5    15    16    2
     6    15     1    1
     7     1     2   ar
     8     2    19    1
     9    19    20    1
    10    20    21   ar
    11    21    22    1
    12    21    23   ar
    13    23    24   ar
    14    24    25    1
    15    24    26   ar
    16    26    27    1
    17     2     3   ar
    18     3     4   ar
    19     4     5   ar
    20     5     6   ar
    21     6     7    2
    22     6     8   ar
    23     8     9    1
    24     8    10   ar
    25    10    11    2
    26    10    12   ar
    27    12    28    1
    28    28    29    1
    29    29    30    1
    30    29    31    1
    31     5     1   ar
    32    26    20   ar
    33    12     4   ar
@<TRIPOS>MOLECULE
*****
 31 33 0 0 0
SMALL
GASTEIGER

@<TRIPOS>ATOM
      1 C          62.7763   87.3345   12.0146 C.ar    1  UNL1        0.0659
      2 C          62.2636   86.6352   10.7906 C.ar    1  UNL1        0.0360
      3 S          62.2390   85.1624   11.0743 S.2     1  UNL1       -0.0718
      4 C          62.7365   84.9515   12.4735 C.ar    1  UNL1        0.0983
      5 C          63.0685   86.2939   13.0547 C.ar    1  UNL1        0.0830
      6 C          63.5941   86.3954   14.4559 C.ar    1  UNL1        0.2663
      7 O          63.9262   87.7378   15.0371 O.2     1  UNL1       -0.2668
      8 N          63.7877   85.1543   15.2760 N.ar    1  UNL1       -0.2467
      9 C          64.3133   85.2558   16.6773 C.3     1  UNL1        0.1382
     10 C          63.4557   83.8120   14.6948 C.ar    1  UNL1        0.3342
     11 O          63.6493   82.5710   15.5149 O.2     1  UNL1       -0.2462
     12 N          62.9301   83.7106   13.2936 N.ar    1  UNL1       -0.2757
     13 N          61.8388   89.7516   11.8448 N.am    1  UNL1       -0.1628
     14 C          62.0263   91.2316   12.0012 C.3     1  UNL1        0.1484
     15 C          62.9637   88.8145   12.1710 C.2     1  UNL1        0.2717
     16 O          64.2761   89.3574   12.6536 O.2     1  UNL1       -0.2678
     17 C          59.2837   89.4170   12.1760 C.3     1  UNL1        0.2059
     18 O          60.5264   89.2087   11.3622 O.3     1  UNL1       -0.2600
     19 C          61.8484   87.2931    9.5081 C.3     1  UNL1        0.1413
     20 N          61.3284   86.4619    8.3729 N.ar    1  UNL1       -0.3007
     21 C          59.9312   86.4891    7.8279 C.ar    1  UNL1        0.1226
     22 C          58.8086   87.3523    8.3225 C.3     1  UNL1        0.0719
     23 N          59.8537   85.5016    6.7014 N.ar    1  UNL1       -0.2186
     24 C          61.2031   84.8641    6.5504 C.ar    1  UNL1        0.1661
     25 CL         61.5755   83.8169    5.5430 Cl      1  UNL1       -0.0588
     26 C          62.1145   85.4576    7.5833 C.ar    1  UNL1        0.1487
     27 CL         63.5584   85.1080    7.7903 Cl      1  UNL1       -0.0606
     28 C          62.5981   82.3682   12.7125 C.3     1  UNL1        0.1109
     29 C          63.3757   81.8448   11.5412 C.3     1  UNL1        0.0228
     30 C          64.6001   82.5711   11.0691 C.3     1  UNL1        0.0020
     31 C          62.9285   80.5952   10.8424 C.3     1  UNL1        0.0020
@<TRIPOS>BOND
     1    17    18    1
     2    18    13    1
     3    13    14    1
     4    13    15   am
     5    15    16    2
     6    15     1    1
     7     1     2   ar
     8     2    19    1
     9    19    20    1
    10    20    21   ar
    11    21    22    1
    12    21    23   ar
    13    23    24   ar
    14    24    25    1
    15    24    26   ar
    16    26    27    1
    17     2     3   ar
    18     3     4   ar
    19     4     5   ar
    20     5     6   ar
    21     6     7    2
    22     6     8   ar
    23     8     9    1
    24     8    10   ar
    25    10    11    2
    26    10    12   ar
    27    12    28    1
    28    28    29    1
    29    29    30    1
    30    29    31    1
    31     5     1   ar
    32    26    20   ar
    33    12     4   ar
