@<TRIPOS>MOLECULE
*****
 31 35 0 0 0
SMALL
GASTEIGER

@<TRIPOS>ATOM
      1 C          63.2591   82.8425   12.8903 C.ar    1  UNL1        0.0668
      2 C          64.0347   83.1175   14.1444 C.ar    1  UNL1        0.0189
      3 C          64.3309   84.5314   14.5481 C.ar    1  UNL1        0.0174
      4 C          63.8514   85.6703   13.6979 C.ar    1  UNL1        0.0631
      5 C          63.0758   85.3953   12.4438 C.ar    1  UNL1        0.0656
      6 C          62.7796   83.9814   12.0400 C.ar    1  UNL1        0.0335
      7 N          62.5095   86.3761   11.4603 N.am    1  UNL1       -0.2793
      8 C          62.5789   87.8743   11.4881 C.2     1  UNL1        0.2522
      9 O          61.9066   88.5782   10.3469 O.2     1  UNL1       -0.2697
     10 C          63.2319   88.7616   12.5062 C.ar    1  UNL1        0.0853
     11 C          63.0684   90.2108   12.1554 C.ar    1  UNL1        0.0086
     12 C          63.6496   91.2683   13.0463 C.ar    1  UNL1        0.0153
     13 C          64.3944   90.8765   14.2881 C.ar    1  UNL1        0.0648
     14 N          64.5578   89.4274   14.6389 N.ar    1  UNL1       -0.2344
     15 C          63.9766   88.3699   13.7479 C.ar    1  UNL1        0.1361
     16 N          64.2523   86.9941   14.2782 N.pl3   1  UNL1       -0.2969
     17 H          62.0286   85.9849   10.6955 H       1  UNL1        0.1552
     18 H          64.7641   86.9548   15.1184 H       1  UNL1        0.1536
     19 C          62.7058   78.4549   10.0051 C.3     1  UNL1        0.0538
     20 C          62.7086   79.4118   11.1602 C.ar    1  UNL1        0.0786
     21 C          63.1148   80.8548   11.1088 C.ar    1  UNL1        0.0962
     22 N          62.9629   81.4285   12.4864 N.ar    1  UNL1       -0.2867
     23 C          62.4628   80.3400   13.3892 C.ar    1  UNL1        0.1825
     24 N          62.3056   79.0936   12.5696 N.ar    1  UNL1       -0.2280
     25 C          64.9756   91.9340   15.1791 C.3     1  UNL1        0.0721
     26 C          66.4431   92.2390   15.1224 C.ar    1  UNL1       -0.0162
     27 C          67.1003   92.9756   16.2519 C.ar    1  UNL1       -0.0039
     28 C          68.5679   93.2807   16.1952 C.ar    1  UNL1       -0.0003
     29 C          69.3784   92.8491   15.0091 C.ar    1  UNL1       -0.0000
     30 C          68.7212   92.1125   13.8797 C.ar    1  UNL1       -0.0003
     31 C          67.2536   91.8075   13.9363 C.ar    1  UNL1       -0.0039
@<TRIPOS>BOND
     1    19    20    1
     2    20    21   ar
     3    21    22   ar
     4    22     1    1
     5     1     2   ar
     6     2     3   ar
     7     3     4   ar
     8     4     5   ar
     9     5     6   ar
    10     5     7    1
    11     7     8   am
    12     8     9    2
    13     8    10    1
    14    10    11   ar
    15    11    12   ar
    16    12    13   ar
    17    13    25    1
    18    25    26    1
    19    26    27   ar
    20    27    28   ar
    21    28    29   ar
    22    29    30   ar
    23    30    31   ar
    24    13    14   ar
    25    14    15   ar
    26    15    16    1
    27    22    23   ar
    28    23    24   ar
    29    24    20   ar
    30     6     1   ar
    31    15    10   ar
    32    16     4    1
    33    31    26   ar
    34     7    17    1
    35    16    18    1
@<TRIPOS>MOLECULE
*****
 31 35 0 0 0
SMALL
GASTEIGER

@<TRIPOS>ATOM
      1 C          59.8202   89.0983    7.5872 C.ar    1  UNL1        0.0668
      2 C          59.6086   87.6134    7.6008 C.ar    1  UNL1        0.0189
      3 C          60.2460   86.7748    8.6687 C.ar    1  UNL1        0.0174
      4 C          61.0950   87.4211    9.7229 C.ar    1  UNL1        0.0631
      5 C          61.3067   88.9060    9.7093 C.ar    1  UNL1        0.0656
      6 C          60.6693   89.7446    8.6414 C.ar    1  UNL1        0.0335
      7 N          62.1096   89.7450   10.6586 N.am    1  UNL1       -0.2793
      8 C          62.8992   89.3062   11.8562 C.2     1  UNL1        0.2522
      9 O          63.5998   90.3979   12.6094 O.2     1  UNL1       -0.2697
     10 C          63.0809   87.9201   12.4001 C.ar    1  UNL1        0.0853
     11 C          63.9525   87.9204   13.6209 C.ar    1  UNL1        0.0086
     12 C          64.2611   86.6309   14.3223 C.ar    1  UNL1        0.0153
     13 C          63.6980   85.3412   13.8030 C.ar    1  UNL1        0.0648
     14 N          62.8264   85.3410   12.5823 N.ar    1  UNL1       -0.2344
     15 C          62.5178   86.6305   11.8808 C.ar    1  UNL1        0.1361
     16 N          61.6340   86.4084   10.6893 N.pl3   1  UNL1       -0.2969
     17 H          62.1197   90.7113   10.4710 H       1  UNL1        0.1552
     18 H          61.3732   85.4744   10.5191 H       1  UNL1        0.1536
     19 C          59.1577   92.4459    3.5578 C.3     1  UNL1        0.0538
     20 C          58.8783   91.4758    4.6672 C.ar    1  UNL1        0.0786
     21 C          59.9024   90.8314    5.5537 C.ar    1  UNL1        0.0962
     22 N          59.1828   89.9370    6.5193 N.ar    1  UNL1       -0.2867
     23 C          57.7140   90.0286    6.2295 C.ar    1  UNL1        0.1825
     24 N          57.5257   90.9796    5.0848 N.ar    1  UNL1       -0.2280
     25 C          64.0066   84.0517   14.5044 C.3     1  UNL1        0.0721
     26 C          63.3255   82.7848   14.0789 C.ar    1  UNL1       -0.0162
     27 C          61.9972   82.4129   14.6683 C.ar    1  UNL1       -0.0039
     28 C          61.3161   81.1460   14.2428 C.ar    1  UNL1       -0.0003
     29 C          61.9633   80.2509   13.2279 C.ar    1  UNL1       -0.0000
     30 C          63.2916   80.6228   12.6385 C.ar    1  UNL1       -0.0003
     31 C          63.9727   81.8897   13.0640 C.ar    1  UNL1       -0.0039
@<TRIPOS>BOND
     1    19    20    1
     2    20    21   ar
     3    21    22   ar
     4    22     1    1
     5     1     2   ar
     6     2     3   ar
     7     3     4   ar
     8     4     5   ar
     9     5     6   ar
    10     5     7    1
    11     7     8   am
    12     8     9    2
    13     8    10    1
    14    10    11   ar
    15    11    12   ar
    16    12    13   ar
    17    13    25    1
    18    25    26    1
    19    26    27   ar
    20    27    28   ar
    21    28    29   ar
    22    29    30   ar
    23    30    31   ar
    24    13    14   ar
    25    14    15   ar
    26    15    16    1
    27    22    23   ar
    28    23    24   ar
    29    24    20   ar
    30     6     1   ar
    31    15    10   ar
    32    16     4    1
    33    31    26   ar
    34     7    17    1
    35    16    18    1
@<TRIPOS>MOLECULE
*****
 31 35 0 0 0
SMALL
GASTEIGER

@<TRIPOS>ATOM
      1 C          63.0616   82.6059   12.7922 C.ar    1  UNL1        0.0668
      2 C          63.6035   83.5424   11.7533 C.ar    1  UNL1        0.0189
      3 C          63.8354   84.9851   12.0919 C.ar    1  UNL1        0.0174
      4 C          63.5255   85.4914   13.4695 C.ar    1  UNL1        0.0631
      5 C          62.9836   84.5549   14.5084 C.ar    1  UNL1        0.0656
      6 C          62.7517   83.1122   14.1698 C.ar    1  UNL1        0.0335
      7 N          62.6106   84.8508   15.9308 N.am    1  UNL1       -0.2793
      8 C          62.6873   86.1563   16.6656 C.2     1  UNL1        0.2522
      9 O          62.2356   86.1257   18.0956 O.2     1  UNL1       -0.2697
     10 C          63.1560   87.4882   16.1595 C.ar    1  UNL1        0.0853
     11 C          63.0706   88.5404   17.2252 C.ar    1  UNL1        0.0086
     12 C          63.4930   89.9480   16.9249 C.ar    1  UNL1        0.0153
     13 C          64.0007   90.3035   15.5589 C.ar    1  UNL1        0.0648
     14 N          64.0861   89.2514   14.4933 N.ar    1  UNL1       -0.2344
     15 C          63.6637   87.8438   14.7936 C.ar    1  UNL1        0.1361
     16 N          63.8282   86.9550   13.5964 N.pl3   1  UNL1       -0.2969
     17 H          62.2704   84.0872   16.4509 H       1  UNL1        0.1552
     18 H          64.1815   87.3899   12.7869 H       1  UNL1        0.1536
     19 C          62.7401   78.0641   10.1184 C.3     1  UNL1        0.0538
     20 C          62.6819   79.0755   11.2246 C.ar    1  UNL1        0.0786
     21 C          63.0317   80.5295   11.1091 C.ar    1  UNL1        0.0962
     22 N          62.8296   81.1631   12.4537 N.ar    1  UNL1       -0.2867
     23 C          62.3549   80.1007   13.4001 C.ar    1  UNL1        0.1825
     24 N          62.2635   78.8104   12.6405 N.ar    1  UNL1       -0.2280
     25 C          64.4231   91.7111   15.2587 C.3     1  UNL1        0.0721
     26 C          65.8795   92.0459   15.1299 C.ar    1  UNL1       -0.0162
     27 C          66.5905   92.7448   16.2507 C.ar    1  UNL1       -0.0039
     28 C          68.0470   93.0795   16.1219 C.ar    1  UNL1       -0.0003
     29 C          68.7926   92.7154   14.8723 C.ar    1  UNL1       -0.0000
     30 C          68.0816   92.0165   13.7515 C.ar    1  UNL1       -0.0003
     31 C          66.6251   91.6818   13.8802 C.ar    1  UNL1       -0.0039
@<TRIPOS>BOND
     1    19    20    1
     2    20    21   ar
     3    21    22   ar
     4    22     1    1
     5     1     2   ar
     6     2     3   ar
     7     3     4   ar
     8     4     5   ar
     9     5     6   ar
    10     5     7    1
    11     7     8   am
    12     8     9    2
    13     8    10    1
    14    10    11   ar
    15    11    12   ar
    16    12    13   ar
    17    13    25    1
    18    25    26    1
    19    26    27   ar
    20    27    28   ar
    21    28    29   ar
    22    29    30   ar
    23    30    31   ar
    24    13    14   ar
    25    14    15   ar
    26    15    16    1
    27    22    23   ar
    28    23    24   ar
    29    24    20   ar
    30     6     1   ar
    31    15    10   ar
    32    16     4    1
    33    31    26   ar
    34     7    17    1
    35    16    18    1
@<TRIPOS>MOLECULE
*****
 31 35 0 0 0
SMALL
GASTEIGER

@<TRIPOS>ATOM
      1 C          62.7636   83.6504   13.7461 C.ar    1  UNL1        0.0668
      2 C          63.7383   84.2554   14.7124 C.ar    1  UNL1        0.0189
      3 C          64.1459   85.6915   14.5662 C.ar    1  UNL1        0.0174
      4 C          63.5788   86.5226   13.4536 C.ar    1  UNL1        0.0631
      5 C          62.6041   85.9175   12.4873 C.ar    1  UNL1        0.0656
      6 C          62.1965   84.4814   12.6336 C.ar    1  UNL1        0.0335
      7 N          61.9244   86.5635   11.3166 N.am    1  UNL1       -0.2793
      8 C          62.0515   87.9744   10.8231 C.2     1  UNL1        0.2522
      9 O          61.2321   88.3174    9.6145 O.2     1  UNL1       -0.2697
     10 C          62.8898   89.0875   11.3784 C.ar    1  UNL1        0.0853
     11 C          62.7251   90.3475   10.5814 C.ar    1  UNL1        0.0086
     12 C          63.4785   91.5848   10.9705 C.ar    1  UNL1        0.0153
     13 C          64.3967   91.5621   12.1565 C.ar    1  UNL1        0.0648
     14 N          64.5614   90.3021   12.9534 N.ar    1  UNL1       -0.2344
     15 C          63.8079   89.0648   12.5644 C.ar    1  UNL1        0.1361
     16 N          64.1145   87.9232   13.4879 N.pl3   1  UNL1       -0.2969
     17 H          61.3142   85.9852   10.8045 H       1  UNL1        0.1552
     18 H          64.7517   88.1192   14.2124 H       1  UNL1        0.1536
     19 C          59.8336   79.2954   14.3207 C.3     1  UNL1        0.0538
     20 C          61.0092   80.2124   14.1565 C.ar    1  UNL1        0.0786
     21 C          60.9522   81.7069   14.0416 C.ar    1  UNL1        0.0962
     22 N          62.3560   82.2142   13.8923 N.ar    1  UNL1       -0.2867
     23 C          63.2805   81.0332   13.9150 C.ar    1  UNL1        0.1825
     24 N          62.4481   79.7960   14.0782 N.ar    1  UNL1       -0.2280
     25 C          65.1502   92.7994   12.5455 C.3     1  UNL1        0.0721
     26 C          65.9838   93.5208   11.5284 C.ar    1  UNL1       -0.0162
     27 C          65.9525   95.0189   11.4591 C.ar    1  UNL1       -0.0039
     28 C          66.7862   95.7403   10.4420 C.ar    1  UNL1       -0.0003
     29 C          67.6512   94.9637    9.4941 C.ar    1  UNL1       -0.0000
     30 C          67.6826   93.4656    9.5633 C.ar    1  UNL1       -0.0003
     31 C          66.8489   92.7441   10.5804 C.ar    1  UNL1       -0.0039
@<TRIPOS>BOND
     1    19    20    1
     2    20    21   ar
     3    21    22   ar
     4    22     1    1
     5     1     2   ar
     6     2     3   ar
     7     3     4   ar
     8     4     5   ar
     9     5     6   ar
    10     5     7    1
    11     7     8   am
    12     8     9    2
    13     8    10    1
    14    10    11   ar
    15    11    12   ar
    16    12    13   ar
    17    13    25    1
    18    25    26    1
    19    26    27   ar
    20    27    28   ar
    21    28    29   ar
    22    29    30   ar
    23    30    31   ar
    24    13    14   ar
    25    14    15   ar
    26    15    16    1
    27    22    23   ar
    28    23    24   ar
    29    24    20   ar
    30     6     1   ar
    31    15    10   ar
    32    16     4    1
    33    31    26   ar
    34     7    17    1
    35    16    18    1
@<TRIPOS>MOLECULE
*****
 31 35 0 0 0
SMALL
GASTEIGER

@<TRIPOS>ATOM
      1 C          59.5084   89.9487    6.3529 C.ar    1  UNL1        0.0668
      2 C          58.1804   90.5356    5.9766 C.ar    1  UNL1        0.0189
      3 C          58.0810   91.4859    4.8203 C.ar    1  UNL1        0.0174
      4 C          59.3096   91.8491    4.0403 C.ar    1  UNL1        0.0631
      5 C          60.6377   91.2622    4.4166 C.ar    1  UNL1        0.0656
      6 C          60.7371   90.3119    5.5729 C.ar    1  UNL1        0.0335
      7 N          61.9755   91.4891    3.7772 N.am    1  UNL1       -0.2793
      8 C          62.3156   92.3591    2.6035 C.2     1  UNL1        0.2522
      9 O          63.7604   92.3730    2.2007 O.2     1  UNL1       -0.2697
     10 C          61.4019   93.2169    1.7794 C.ar    1  UNL1        0.0853
     11 C          62.1513   93.9293    0.6927 C.ar    1  UNL1        0.0086
     12 C          61.4213   94.8415   -0.2480 C.ar    1  UNL1        0.0153
     13 C          59.9418   95.0413   -0.1020 C.ar    1  UNL1        0.0648
     14 N          59.1924   94.3290    0.9846 N.ar    1  UNL1       -0.2344
     15 C          59.9225   93.4168    1.9254 C.ar    1  UNL1        0.1361
     16 N          58.9913   92.8080    2.9316 N.pl3   1  UNL1       -0.2969
     17 H          62.7301   91.0027    4.1813 H       1  UNL1        0.1552
     18 H          58.0463   93.0728    2.8541 H       1  UNL1        0.1536
     19 C          60.4501   87.9623   11.1539 C.3     1  UNL1        0.0538
     20 C          60.0407   88.0854    9.7161 C.ar    1  UNL1        0.0786
     21 C          60.1190   89.3286    8.8804 C.ar    1  UNL1        0.0962
     22 N          59.6079   88.9984    7.5093 N.ar    1  UNL1       -0.2867
     23 C          59.2137   87.5512    7.4977 C.ar    1  UNL1        0.1825
     24 N          59.4812   86.9869    8.8615 N.ar    1  UNL1       -0.2280
     25 C          59.2117   95.9535   -1.0427 C.3     1  UNL1        0.0721
     26 C          57.7556   95.7301   -1.3253 C.ar    1  UNL1       -0.0162
     27 C          57.2806   94.3882   -1.7981 C.ar    1  UNL1       -0.0039
     28 C          55.8245   94.1647   -2.0807 C.ar    1  UNL1       -0.0003
     29 C          54.8433   95.2833   -1.8903 C.ar    1  UNL1       -0.0000
     30 C          55.3183   96.6252   -1.4175 C.ar    1  UNL1       -0.0003
     31 C          56.7745   96.8487   -1.1349 C.ar    1  UNL1       -0.0039
@<TRIPOS>BOND
     1    19    20    1
     2    20    21   ar
     3    21    22   ar
     4    22     1    1
     5     1     2   ar
     6     2     3   ar
     7     3     4   ar
     8     4     5   ar
     9     5     6   ar
    10     5     7    1
    11     7     8   am
    12     8     9    2
    13     8    10    1
    14    10    11   ar
    15    11    12   ar
    16    12    13   ar
    17    13    25    1
    18    25    26    1
    19    26    27   ar
    20    27    28   ar
    21    28    29   ar
    22    29    30   ar
    23    30    31   ar
    24    13    14   ar
    25    14    15   ar
    26    15    16    1
    27    22    23   ar
    28    23    24   ar
    29    24    20   ar
    30     6     1   ar
    31    15    10   ar
    32    16     4    1
    33    31    26   ar
    34     7    17    1
    35    16    18    1
