@<TRIPOS>MOLECULE
*****
 25 27 0 0 0
SMALL
GASTEIGER

@<TRIPOS>ATOM
      1 C          62.5598   89.3506   10.9159 C.ar    1  UNL1        0.0070
      2 C          62.9791   88.8495   12.2660 C.ar    1  UNL1       -0.0017
      3 C          63.9424   89.6457   13.0955 C.ar    1  UNL1       -0.0002
      4 C          64.4863   90.9431   12.5748 C.ar    1  UNL1       -0.0000
      5 C          64.0670   91.4442   11.2247 C.ar    1  UNL1       -0.0002
      6 C          63.1037   90.6479   10.3952 C.ar    1  UNL1       -0.0017
      7 C          65.4496   91.7393   13.4044 C.ar    1  UNL1        0.0001
      8 C          66.0440   91.1409   14.6448 C.ar    1  UNL1        0.0009
      9 C          67.0073   91.9371   15.4744 C.ar    1  UNL1        0.0114
     10 C          67.3762   93.3318   15.0635 C.ar    1  UNL1        0.0577
     11 CL         68.3394   94.1280   15.8930 Cl      1  UNL1       -0.0822
     12 C          66.7818   93.9302   13.8230 C.ar    1  UNL1        0.0114
     13 C          65.8185   93.1340   12.9935 C.ar    1  UNL1        0.0009
     14 C          61.5965   88.5544   10.0863 C.3     1  UNL1        0.1410
     15 O          62.7366   88.0327    9.2630 O.3     1  UNL1       -0.3771
     16 H          63.5354   88.5493    9.4527 H       1  UNL1        0.2112
     17 C          60.4563   89.0760   10.9096 C.ar    1  UNL1        0.0825
     18 C          59.9251   90.4787   10.8915 C.ar    1  UNL1        0.1157
     19 N          58.7876   90.5562   11.8664 N.ar    1  UNL1       -0.2228
     20 C          58.6159   89.2014   12.4869 C.ar    1  UNL1        0.1749
     21 N          59.6472   88.2866   11.8957 N.ar    1  UNL1       -0.3361
     22 H          59.7712   87.3352   12.1160 H       1  UNL1        0.1673
     23 C          59.6838   88.4588    8.3307 C.3     1  UNL1        0.0031
     24 C          60.6332   87.7582    9.2568 C.3     1  UNL1        0.0340
     25 C          60.6193   86.2613    9.3534 C.3     1  UNL1        0.0031
@<TRIPOS>BOND
     1    23    24    1
     2    24    25    1
     3    24    14    1
     4    14    15    1
     5    14     1    1
     6     1     2   ar
     7     2     3   ar
     8     3     4   ar
     9     4     7    1
    10     7     8   ar
    11     8     9   ar
    12     9    10   ar
    13    10    11    1
    14    10    12   ar
    15    12    13   ar
    16     4     5   ar
    17     5     6   ar
    18    14    17    1
    19    17    18   ar
    20    18    19   ar
    21    19    20   ar
    22    20    21   ar
    23     6     1   ar
    24    21    17   ar
    25    13     7   ar
    26    15    16    1
    27    21    22    1
@<TRIPOS>MOLECULE
*****
 25 27 0 0 0
SMALL
GASTEIGER

@<TRIPOS>ATOM
      1 C          61.8391   89.5668   10.4015 C.ar    1  UNL1        0.0070
      2 C          62.7386   90.6235    9.8320 C.ar    1  UNL1       -0.0017
      3 C          63.7443   91.3059   10.7111 C.ar    1  UNL1       -0.0002
      4 C          63.8505   90.9316   12.1598 C.ar    1  UNL1       -0.0000
      5 C          62.9511   89.8749   12.7293 C.ar    1  UNL1       -0.0002
      6 C          61.9454   89.1925   11.8502 C.ar    1  UNL1       -0.0017
      7 C          64.8563   91.6140   13.0389 C.ar    1  UNL1        0.0001
      8 C          65.1418   91.0759   14.4096 C.ar    1  UNL1        0.0009
      9 C          66.1475   91.7584   15.2888 C.ar    1  UNL1        0.0114
     10 C          66.8677   92.9789   14.7971 C.ar    1  UNL1        0.0577
     11 CL         67.8734   93.6613   15.6762 Cl      1  UNL1       -0.0822
     12 C          66.5822   93.5169   13.4263 C.ar    1  UNL1        0.0114
     13 C          65.5765   92.8345   12.5472 C.ar    1  UNL1        0.0009
     14 C          60.8334   88.8844    9.5224 C.3     1  UNL1        0.1410
     15 O          60.2508   90.2167    9.1546 O.3     1  UNL1       -0.3771
     16 H          60.5961   90.8971    9.7535 H       1  UNL1        0.2112
     17 C          61.4160   87.5520    9.8902 C.ar    1  UNL1        0.0825
     18 C          62.3598   86.7409    9.0527 C.ar    1  UNL1        0.1157
     19 N          62.6842   85.4843    9.8050 N.ar    1  UNL1       -0.2228
     20 C          61.9409   85.5189   11.1075 C.ar    1  UNL1        0.1749
     21 N          61.1571   86.7967   11.1601 N.ar    1  UNL1       -0.3361
     22 H          60.5750   87.0885   11.8985 H       1  UNL1        0.1673
     23 C          59.1625   86.9392    9.1048 C.3     1  UNL1        0.0031
     24 C          59.8277   88.2019    8.6433 C.3     1  UNL1        0.0340
     25 C          59.4871   88.7822    7.3026 C.3     1  UNL1        0.0031
@<TRIPOS>BOND
     1    23    24    1
     2    24    25    1
     3    24    14    1
     4    14    15    1
     5    14     1    1
     6     1     2   ar
     7     2     3   ar
     8     3     4   ar
     9     4     7    1
    10     7     8   ar
    11     8     9   ar
    12     9    10   ar
    13    10    11    1
    14    10    12   ar
    15    12    13   ar
    16     4     5   ar
    17     5     6   ar
    18    14    17    1
    19    17    18   ar
    20    18    19   ar
    21    19    20   ar
    22    20    21   ar
    23     6     1   ar
    24    21    17   ar
    25    13     7   ar
    26    15    16    1
    27    21    22    1
@<TRIPOS>MOLECULE
*****
 25 27 0 0 0
SMALL
GASTEIGER

@<TRIPOS>ATOM
      1 C          63.0696   84.3593   13.8480 C.ar    1  UNL1        0.0070
      2 C          63.8281   85.0239   14.9584 C.ar    1  UNL1       -0.0017
      3 C          64.1901   86.4758   14.8552 C.ar    1  UNL1       -0.0002
      4 C          63.7937   87.2632   13.6415 C.ar    1  UNL1       -0.0000
      5 C          63.0353   86.5986   12.5311 C.ar    1  UNL1       -0.0002
      6 C          62.6732   85.1467   12.6344 C.ar    1  UNL1       -0.0017
      7 C          64.1558   88.7152   13.5383 C.ar    1  UNL1        0.0001
      8 C          65.0389   89.3435   14.5753 C.ar    1  UNL1        0.0009
      9 C          65.4010   90.7955   14.4721 C.ar    1  UNL1        0.0114
     10 C          64.8800   91.6192   13.3319 C.ar    1  UNL1        0.0577
     11 CL         65.2420   93.0712   13.2287 Cl      1  UNL1       -0.0822
     12 C          63.9968   90.9909   12.2949 C.ar    1  UNL1        0.0114
     13 C          63.6348   89.5389   12.3982 C.ar    1  UNL1        0.0009
     14 C          62.7075   82.9073   13.9512 C.3     1  UNL1        0.1410
     15 O          62.1131   83.1518   15.3065 O.3     1  UNL1       -0.3771
     16 H          62.3785   84.0296   15.6224 H       1  UNL1        0.2112
     17 C          63.3020   82.6628   12.5959 C.ar    1  UNL1        0.0825
     18 C          64.7032   82.9937   12.1750 C.ar    1  UNL1        0.1157
     19 N          64.8668   82.5798   10.7424 N.ar    1  UNL1       -0.2228
     20 C          63.5667   81.9931   10.2781 C.ar    1  UNL1        0.1749
     21 N          62.5997   82.0443   11.4236 N.ar    1  UNL1       -0.3361
     22 H          61.6676   81.7277   11.4086 H       1  UNL1        0.1673
     23 C          60.9043   81.0444   14.1181 C.3     1  UNL1        0.0031
     24 C          62.3455   81.4553   14.0543 C.3     1  UNL1        0.0340
     25 C          63.4247   80.4142   14.0937 C.3     1  UNL1        0.0031
@<TRIPOS>BOND
     1    23    24    1
     2    24    25    1
     3    24    14    1
     4    14    15    1
     5    14     1    1
     6     1     2   ar
     7     2     3   ar
     8     3     4   ar
     9     4     7    1
    10     7     8   ar
    11     8     9   ar
    12     9    10   ar
    13    10    11    1
    14    10    12   ar
    15    12    13   ar
    16     4     5   ar
    17     5     6   ar
    18    14    17    1
    19    17    18   ar
    20    18    19   ar
    21    19    20   ar
    22    20    21   ar
    23     6     1   ar
    24    21    17   ar
    25    13     7   ar
    26    15    16    1
    27    21    22    1
@<TRIPOS>MOLECULE
*****
 25 27 0 0 0
SMALL
GASTEIGER

@<TRIPOS>ATOM
      1 C          63.7884   88.0769   13.4484 C.ar    1  UNL1        0.0070
      2 C          64.2650   87.1271   14.5071 C.ar    1  UNL1       -0.0017
      3 C          64.0386   85.6528   14.3489 C.ar    1  UNL1       -0.0002
      4 C          63.3356   85.1282   13.1321 C.ar    1  UNL1       -0.0000
      5 C          62.8590   86.0779   12.0735 C.ar    1  UNL1       -0.0002
      6 C          63.0854   87.5523   12.2316 C.ar    1  UNL1       -0.0017
      7 C          63.1093   83.6538   12.9740 C.ar    1  UNL1        0.0001
      8 C          62.6603   82.8339   14.1471 C.ar    1  UNL1        0.0009
      9 C          62.4340   81.3595   13.9889 C.ar    1  UNL1        0.0114
     10 C          62.6565   80.7050   12.6577 C.ar    1  UNL1        0.0577
     11 CL         62.4302   79.2307   12.4995 Cl      1  UNL1       -0.0822
     12 C          63.1055   81.5250   11.4846 C.ar    1  UNL1        0.0114
     13 C          63.3318   82.9994   11.6427 C.ar    1  UNL1        0.0009
     14 C          64.0147   89.5513   13.6065 C.3     1  UNL1        0.1410
     15 O          65.1331   89.2766   14.5677 O.3     1  UNL1       -0.3771
     16 H          65.1089   88.3441   14.8339 H       1  UNL1        0.2112
     17 C          62.8964   89.8260   12.6454 C.ar    1  UNL1        0.0825
     18 C          63.0425   90.1011   11.1781 C.ar    1  UNL1        0.1157
     19 N          61.6719   90.3190   10.6086 N.ar    1  UNL1       -0.2228
     20 C          60.6788   90.1786   11.7240 C.ar    1  UNL1        0.1749
     21 N          61.4356   89.8739   12.9828 N.ar    1  UNL1       -0.3361
     22 H          61.0425   89.7305   13.8739 H       1  UNL1        0.1673
     23 C          64.6852   91.8464   12.5903 C.3     1  UNL1        0.0031
     24 C          64.2411   91.0256   13.7646 C.3     1  UNL1        0.0340
     25 C          64.0232   91.6793   15.0971 C.3     1  UNL1        0.0031
@<TRIPOS>BOND
     1    23    24    1
     2    24    25    1
     3    24    14    1
     4    14    15    1
     5    14     1    1
     6     1     2   ar
     7     2     3   ar
     8     3     4   ar
     9     4     7    1
    10     7     8   ar
    11     8     9   ar
    12     9    10   ar
    13    10    11    1
    14    10    12   ar
    15    12    13   ar
    16     4     5   ar
    17     5     6   ar
    18    14    17    1
    19    17    18   ar
    20    18    19   ar
    21    19    20   ar
    22    20    21   ar
    23     6     1   ar
    24    21    17   ar
    25    13     7   ar
    26    15    16    1
    27    21    22    1
@<TRIPOS>MOLECULE
*****
 25 27 0 0 0
SMALL
GASTEIGER

@<TRIPOS>ATOM
      1 C          62.8946   85.7314   12.2875 C.ar    1  UNL1        0.0070
      2 C          62.9938   87.2246   12.1850 C.ar    1  UNL1       -0.0017
      3 C          62.2565   87.9524   11.1003 C.ar    1  UNL1       -0.0002
      4 C          61.4201   87.1871   10.1181 C.ar    1  UNL1       -0.0000
      5 C          61.3209   85.6939   10.2206 C.ar    1  UNL1       -0.0002
      6 C          62.0582   84.9661   11.3053 C.ar    1  UNL1       -0.0017
      7 C          60.6827   87.9150    9.0334 C.ar    1  UNL1        0.0001
      8 C          59.9267   87.1437    7.9925 C.ar    1  UNL1        0.0009
      9 C          59.1894   87.8717    6.9078 C.ar    1  UNL1        0.0114
     10 C          59.2082   89.3709    6.8640 C.ar    1  UNL1        0.0577
     11 CL         58.4709   90.0988    5.7794 Cl      1  UNL1       -0.0822
     12 C          59.9643   90.1422    7.9049 C.ar    1  UNL1        0.0114
     13 C          60.7015   89.4143    8.9896 C.ar    1  UNL1        0.0009
     14 C          63.6320   85.0035   13.3722 C.3     1  UNL1        0.1410
     15 O          63.5790   86.2312   14.2322 O.3     1  UNL1       -0.3771
     16 H          63.3042   86.9907   13.6950 H       1  UNL1        0.2112
     17 C          63.6849   83.7757   12.5122 C.ar    1  UNL1        0.0825
     18 C          64.6654   83.5147   11.4074 C.ar    1  UNL1        0.1157
     19 N          64.3531   82.1709   10.8183 N.ar    1  UNL1       -0.2228
     20 C          63.1796   81.6014   11.5591 C.ar    1  UNL1        0.1749
     21 N          62.7667   82.5932   12.6060 N.ar    1  UNL1       -0.3361
     22 H          62.0235   82.4867   13.2428 H       1  UNL1        0.1673
     23 C          65.8253   84.5509   14.6892 C.3     1  UNL1        0.0031
     24 C          64.3692   84.2755   14.4568 C.3     1  UNL1        0.0340
     25 C          63.6504   83.2721   15.3093 C.3     1  UNL1        0.0031
@<TRIPOS>BOND
     1    23    24    1
     2    24    25    1
     3    24    14    1
     4    14    15    1
     5    14     1    1
     6     1     2   ar
     7     2     3   ar
     8     3     4   ar
     9     4     7    1
    10     7     8   ar
    11     8     9   ar
    12     9    10   ar
    13    10    11    1
    14    10    12   ar
    15    12    13   ar
    16     4     5   ar
    17     5     6   ar
    18    14    17    1
    19    17    18   ar
    20    18    19   ar
    21    19    20   ar
    22    20    21   ar
    23     6     1   ar
    24    21    17   ar
    25    13     7   ar
    26    15    16    1
    27    21    22    1
