@<TRIPOS>MOLECULE
*****
 24 27 0 0 0
SMALL
GASTEIGER

@<TRIPOS>ATOM
      1 C          63.0113   85.5092   12.5555 C.ar    1  UNL1       -0.0003
      2 C          63.7149   86.2537   13.6512 C.ar    1  UNL1       -0.0003
      3 C          63.8367   87.7472   13.5848 C.ar    1  UNL1       -0.0043
      4 C          63.2549   88.4963   12.4227 C.ar    1  UNL1       -0.0224
      5 C          62.5512   87.7518   11.3271 C.ar    1  UNL1       -0.0258
      6 C          62.4294   86.2582   11.3934 C.ar    1  UNL1       -0.0046
      7 C          61.9694   88.5008   10.1650 C.3     1  UNL1        0.0261
      8 C          62.0912   89.9944   10.0986 C.3     1  UNL1        0.0053
      9 C          62.7949   90.7389   11.1943 C.3     1  UNL1        0.0091
     10 C          63.3767   89.9899   12.3564 C.3     1  UNL1        0.0444
     11 F          62.5240   79.5349   12.8208 F       1  UNL1       -0.2018
     12 C          62.6458   81.0284   12.7545 C.ar    1  UNL1        0.1674
     13 C          62.4303   81.8540   13.9882 C.ar    1  UNL1        0.0320
     14 C          62.5522   83.3476   13.9218 C.ar    1  UNL1        0.0025
     15 C          62.8894   84.0156   12.6218 C.ar    1  UNL1        0.0024
     16 C          63.1049   83.1900   11.3882 C.ar    1  UNL1        0.0320
     17 C          62.9831   81.6964   11.4545 C.ar    1  UNL1        0.1674
     18 F          63.1986   80.8709   10.2208 F       1  UNL1       -0.2018
     19 C          64.0804   90.7344   13.4521 C.ar    1  UNL1       -0.0154
     20 C          63.5655   90.6615   14.8590 C.ar    1  UNL1        0.0167
     21 C          64.2692   91.4060   15.9547 C.ar    1  UNL1        0.0986
     22 N          65.4878   92.2234   15.6434 N.ar    1  UNL1       -0.2423
     23 C          66.0026   92.2964   14.2365 C.ar    1  UNL1        0.0986
     24 C          65.2990   91.5519   13.1408 C.ar    1  UNL1        0.0167
@<TRIPOS>BOND
     1    11    12    1
     2    12    13   ar
     3    13    14   ar
     4    14    15   ar
     5    15     1    1
     6     1     2   ar
     7     2     3   ar
     8     3     4   ar
     9     4     5   ar
    10     5     6   ar
    11     5     7    1
    12     7     8    1
    13     8     9    1
    14     9    10    1
    15    10    19    1
    16    19    20   ar
    17    20    21   ar
    18    21    22   ar
    19    22    23   ar
    20    23    24   ar
    21    15    16   ar
    22    16    17   ar
    23    17    18    1
    24    17    12   ar
    25     6     1   ar
    26    24    19   ar
    27    10     4    1
@<TRIPOS>MOLECULE
*****
 24 27 0 0 0
SMALL
GASTEIGER

@<TRIPOS>ATOM
      1 C          62.9120   90.2399   10.7421 C.ar    1  UNL1       -0.0003
      2 C          63.3944   91.3540    9.8612 C.ar    1  UNL1       -0.0003
      3 C          64.3973   92.3407   10.3813 C.ar    1  UNL1       -0.0043
      4 C          64.9178   92.2133   11.7823 C.ar    1  UNL1       -0.0224
      5 C          64.4354   91.0992   12.6632 C.ar    1  UNL1       -0.0258
      6 C          63.4325   90.1125   12.1431 C.ar    1  UNL1       -0.0046
      7 C          64.9559   90.9717   14.0642 C.3     1  UNL1        0.0261
      8 C          65.9588   91.9585   14.5843 C.3     1  UNL1        0.0053
      9 C          66.4412   93.0726   13.7034 C.3     1  UNL1        0.0091
     10 C          65.9207   93.2001   12.3024 C.3     1  UNL1        0.0444
     11 F          58.9003   86.2928    8.6618 F       1  UNL1       -0.2018
     12 C          59.9032   87.2795    9.1819 C.ar    1  UNL1        0.1674
     13 C          59.8046   88.7248    8.7928 C.ar    1  UNL1        0.0320
     14 C          60.8076   89.7116    9.3129 C.ar    1  UNL1        0.0025
     15 C          61.9090   89.2531   10.2220 C.ar    1  UNL1        0.0024
     16 C          62.0076   87.8078   10.6110 C.ar    1  UNL1        0.0320
     17 C          61.0048   86.8210   10.0910 C.ar    1  UNL1        0.1674
     18 F          61.1034   85.3757   10.4800 F       1  UNL1       -0.2018
     19 C          66.4031   94.3142   11.4215 C.ar    1  UNL1       -0.0154
     20 C          67.1760   94.0031   10.1742 C.ar    1  UNL1        0.0167
     21 C          67.6584   95.1173    9.2933 C.ar    1  UNL1        0.0986
     22 N          67.3679   96.5425    9.6597 N.ar    1  UNL1       -0.2423
     23 C          66.5950   96.8536   10.9071 C.ar    1  UNL1        0.0986
     24 C          66.1126   95.7395   11.7880 C.ar    1  UNL1        0.0167
@<TRIPOS>BOND
     1    11    12    1
     2    12    13   ar
     3    13    14   ar
     4    14    15   ar
     5    15     1    1
     6     1     2   ar
     7     2     3   ar
     8     3     4   ar
     9     4     5   ar
    10     5     6   ar
    11     5     7    1
    12     7     8    1
    13     8     9    1
    14     9    10    1
    15    10    19    1
    16    19    20   ar
    17    20    21   ar
    18    21    22   ar
    19    22    23   ar
    20    23    24   ar
    21    15    16   ar
    22    16    17   ar
    23    17    18    1
    24    17    12   ar
    25     6     1   ar
    26    24    19   ar
    27    10     4    1
@<TRIPOS>MOLECULE
*****
 24 27 0 0 0
SMALL
GASTEIGER

@<TRIPOS>ATOM
      1 C          62.8227   90.2223   10.6769 C.ar    1  UNL1       -0.0003
      2 C          63.3490   91.3116    9.7902 C.ar    1  UNL1       -0.0003
      3 C          64.3539   92.2907   10.3209 C.ar    1  UNL1       -0.0043
      4 C          64.8324   92.1803   11.7382 C.ar    1  UNL1       -0.0224
      5 C          64.3061   91.0909   12.6249 C.ar    1  UNL1       -0.0258
      6 C          63.3012   90.1119   12.0942 C.ar    1  UNL1       -0.0046
      7 C          64.7847   90.9805   14.0422 C.3     1  UNL1        0.0261
      8 C          65.7896   91.9596   14.5729 C.3     1  UNL1        0.0053
      9 C          66.3159   93.0490   13.6862 C.3     1  UNL1        0.0091
     10 C          65.8374   93.1594   12.2689 C.3     1  UNL1        0.0444
     11 F          58.8030   86.3060    8.5542 F       1  UNL1       -0.2018
     12 C          59.8079   87.2850    9.0848 C.ar    1  UNL1        0.1674
     13 C          60.7609   86.8698   10.1662 C.ar    1  UNL1        0.0320
     14 C          61.7658   87.8489   10.6969 C.ar    1  UNL1        0.0025
     15 C          61.8177   89.2432   10.1462 C.ar    1  UNL1        0.0024
     16 C          60.8647   89.6584    9.0648 C.ar    1  UNL1        0.0320
     17 C          59.8598   88.6794    8.5341 C.ar    1  UNL1        0.1674
     18 F          58.9068   89.0946    7.4528 F       1  UNL1       -0.2018
     19 C          66.3637   94.2488   11.3823 C.ar    1  UNL1       -0.0154
     20 C          66.0370   95.6821   11.6806 C.ar    1  UNL1        0.0167
     21 C          66.5634   96.7715   10.7938 C.ar    1  UNL1        0.0986
     22 N          67.4164   96.4276    9.6089 N.ar    1  UNL1       -0.2423
     23 C          67.7430   94.9943    9.3106 C.ar    1  UNL1        0.0986
     24 C          67.2167   93.9049   10.1973 C.ar    1  UNL1        0.0167
@<TRIPOS>BOND
     1    11    12    1
     2    12    13   ar
     3    13    14   ar
     4    14    15   ar
     5    15     1    1
     6     1     2   ar
     7     2     3   ar
     8     3     4   ar
     9     4     5   ar
    10     5     6   ar
    11     5     7    1
    12     7     8    1
    13     8     9    1
    14     9    10    1
    15    10    19    1
    16    19    20   ar
    17    20    21   ar
    18    21    22   ar
    19    22    23   ar
    20    23    24   ar
    21    15    16   ar
    22    16    17   ar
    23    17    18    1
    24    17    12   ar
    25     6     1   ar
    26    24    19   ar
    27    10     4    1
@<TRIPOS>MOLECULE
*****
 24 27 0 0 0
SMALL
GASTEIGER

@<TRIPOS>ATOM
      1 C          63.1789   84.4353   13.8943 C.ar    1  UNL1       -0.0003
      2 C          63.6144   85.5307   12.9668 C.ar    1  UNL1       -0.0003
      3 C          63.7757   86.9300   13.4824 C.ar    1  UNL1       -0.0043
      4 C          63.5015   87.2339   14.9255 C.ar    1  UNL1       -0.0224
      5 C          63.0660   86.1384   15.8530 C.ar    1  UNL1       -0.0258
      6 C          62.9047   84.7391   15.3374 C.ar    1  UNL1       -0.0046
      7 C          62.7919   86.4423   17.2961 C.3     1  UNL1        0.0261
      8 C          62.9531   87.8416   17.8117 C.3     1  UNL1        0.0053
      9 C          63.3886   88.9372   16.8842 C.3     1  UNL1        0.0091
     10 C          63.6628   88.6333   15.4411 C.3     1  UNL1        0.0444
     11 F          62.5337   78.8379   11.8320 F       1  UNL1       -0.2018
     12 C          62.6950   80.2372   12.3476 C.ar    1  UNL1        0.1674
     13 C          62.4531   80.5347   13.7978 C.ar    1  UNL1        0.0320
     14 C          62.6144   81.9341   14.3133 C.ar    1  UNL1        0.0025
     15 C          63.0176   83.0359   13.3788 C.ar    1  UNL1        0.0024
     16 C          63.2595   82.7383   11.9286 C.ar    1  UNL1        0.0320
     17 C          63.0982   81.3390   11.4130 C.ar    1  UNL1        0.1674
     18 F          63.3401   81.0415    9.9629 F       1  UNL1       -0.2018
     19 C          64.0983   89.7287   14.5136 C.ar    1  UNL1       -0.0154
     20 C          63.2647   90.0720   13.3147 C.ar    1  UNL1        0.0167
     21 C          63.7002   91.1675   12.3872 C.ar    1  UNL1        0.0986
     22 N          64.9693   91.9197   12.6585 N.ar    1  UNL1       -0.2423
     23 C          65.8029   91.5764   13.8574 C.ar    1  UNL1        0.0986
     24 C          65.3674   90.4810   14.7849 C.ar    1  UNL1        0.0167
@<TRIPOS>BOND
     1    11    12    1
     2    12    13   ar
     3    13    14   ar
     4    14    15   ar
     5    15     1    1
     6     1     2   ar
     7     2     3   ar
     8     3     4   ar
     9     4     5   ar
    10     5     6   ar
    11     5     7    1
    12     7     8    1
    13     8     9    1
    14     9    10    1
    15    10    19    1
    16    19    20   ar
    17    20    21   ar
    18    21    22   ar
    19    22    23   ar
    20    23    24   ar
    21    15    16   ar
    22    16    17   ar
    23    17    18    1
    24    17    12   ar
    25     6     1   ar
    26    24    19   ar
    27    10     4    1
@<TRIPOS>MOLECULE
*****
 24 27 0 0 0
SMALL
GASTEIGER

@<TRIPOS>ATOM
      1 C          64.2679   89.7275   13.4492 C.ar    1  UNL1       -0.0003
      2 C          63.4553   90.1965   12.2789 C.ar    1  UNL1       -0.0003
      3 C          62.6593   89.2112   11.4755 C.ar    1  UNL1       -0.0043
      4 C          62.6759   87.7569   11.8424 C.ar    1  UNL1       -0.0224
      5 C          63.4886   87.2879   13.0127 C.ar    1  UNL1       -0.0258
      6 C          64.2846   88.2732   13.8161 C.ar    1  UNL1       -0.0046
      7 C          63.5052   85.8335   13.3796 C.3     1  UNL1        0.0261
      8 C          62.7092   84.8482   12.5762 C.3     1  UNL1        0.0053
      9 C          61.8965   85.3172   11.4059 C.3     1  UNL1        0.0091
     10 C          61.8799   86.7715   11.0390 C.3     1  UNL1        0.0444
     11 F          67.4521   93.6688   16.6628 F       1  UNL1       -0.2018
     12 C          66.6561   92.6835   15.8594 C.ar    1  UNL1        0.1674
     13 C          65.2830   92.2829   16.3111 C.ar    1  UNL1        0.0320
     14 C          64.4869   91.2975   15.5076 C.ar    1  UNL1        0.0025
     15 C          65.0640   90.7129   14.2526 C.ar    1  UNL1        0.0024
     16 C          66.4371   91.1135   13.8010 C.ar    1  UNL1        0.0320
     17 C          67.2332   92.0988   14.6043 C.ar    1  UNL1        0.1674
     18 F          68.6063   92.4995   14.1527 F       1  UNL1       -0.2018
     19 C          61.0672   87.2405    9.8687 C.ar    1  UNL1       -0.0154
     20 C          60.5055   86.2443    8.8982 C.ar    1  UNL1        0.0167
     21 C          59.6928   86.7133    7.7279 C.ar    1  UNL1        0.0986
     22 N          59.4419   88.1786    7.5281 N.ar    1  UNL1       -0.2423
     23 C          60.0036   89.1749    8.4986 C.ar    1  UNL1        0.0986
     24 C          60.8163   88.7059    9.6689 C.ar    1  UNL1        0.0167
@<TRIPOS>BOND
     1    11    12    1
     2    12    13   ar
     3    13    14   ar
     4    14    15   ar
     5    15     1    1
     6     1     2   ar
     7     2     3   ar
     8     3     4   ar
     9     4     5   ar
    10     5     6   ar
    11     5     7    1
    12     7     8    1
    13     8     9    1
    14     9    10    1
    15    10    19    1
    16    19    20   ar
    17    20    21   ar
    18    21    22   ar
    19    22    23   ar
    20    23    24   ar
    21    15    16   ar
    22    16    17   ar
    23    17    18    1
    24    17    12   ar
    25     6     1   ar
    26    24    19   ar
    27    10     4    1
@<TRIPOS>MOLECULE
*****
 24 27 0 0 0
SMALL
GASTEIGER

@<TRIPOS>ATOM
      1 C          63.0738   90.2451   10.9681 C.ar    1  UNL1       -0.0003
      2 C          63.6652   89.9731   12.3195 C.ar    1  UNL1       -0.0003
      3 C          64.6898   90.9073   12.8916 C.ar    1  UNL1       -0.0043
      4 C          65.1230   92.1137   12.1124 C.ar    1  UNL1       -0.0224
      5 C          64.5315   92.3857   10.7610 C.ar    1  UNL1       -0.0258
      6 C          63.5070   91.4514   10.1889 C.ar    1  UNL1       -0.0046
      7 C          64.9647   93.5920    9.9818 C.3     1  UNL1        0.0261
      8 C          65.9893   94.5263   10.5539 C.3     1  UNL1        0.0053
      9 C          66.5807   94.2542   11.9053 C.3     1  UNL1        0.0091
     10 C          66.1476   93.0479   12.6845 C.3     1  UNL1        0.0444
     11 F          58.9755   86.5080    8.6795 F       1  UNL1       -0.2018
     12 C          60.0000   87.4423    9.2516 C.ar    1  UNL1        0.1674
     13 C          59.9496   88.9044    8.9206 C.ar    1  UNL1        0.0320
     14 C          60.9742   89.8387    9.4928 C.ar    1  UNL1        0.0025
     15 C          62.0492   89.3108   10.3960 C.ar    1  UNL1        0.0024
     16 C          62.0996   87.8487   10.7270 C.ar    1  UNL1        0.0320
     17 C          61.0750   86.9144   10.1549 C.ar    1  UNL1        0.1674
     18 F          61.1254   85.4523   10.4860 F       1  UNL1       -0.2018
     19 C          66.7390   92.7759   14.0359 C.ar    1  UNL1       -0.0154
     20 C          65.8766   92.8506   15.2609 C.ar    1  UNL1        0.0167
     21 C          66.4680   92.5785   16.6123 C.ar    1  UNL1        0.0986
     22 N          67.9219   92.2318   16.7386 N.ar    1  UNL1       -0.2423
     23 C          68.7843   92.1571   15.5136 C.ar    1  UNL1        0.0986
     24 C          68.1929   92.4291   14.1623 C.ar    1  UNL1        0.0167
@<TRIPOS>BOND
     1    11    12    1
     2    12    13   ar
     3    13    14   ar
     4    14    15   ar
     5    15     1    1
     6     1     2   ar
     7     2     3   ar
     8     3     4   ar
     9     4     5   ar
    10     5     6   ar
    11     5     7    1
    12     7     8    1
    13     8     9    1
    14     9    10    1
    15    10    19    1
    16    19    20   ar
    17    20    21   ar
    18    21    22   ar
    19    22    23   ar
    20    23    24   ar
    21    15    16   ar
    22    16    17   ar
    23    17    18    1
    24    17    12   ar
    25     6     1   ar
    26    24    19   ar
    27    10     4    1
