@<TRIPOS>MOLECULE
*****
 62 69 0 0 0
SMALL
GASTEIGER

@<TRIPOS>ATOM
      1 N          65.7368   89.9314   13.9453 N.3     1  UNL1       -0.1862
      2 C          66.1757   88.7664   14.7821 C.3     1  UNL1        0.1775
      3 C          65.3855   87.4915   14.7662 C.2     1  UNL1        0.2452
      4 O          65.8245   86.3266   15.6030 O.2     1  UNL1       -0.2732
      5 N          64.1564   87.3816   13.9135 N.am    1  UNL1       -0.2541
      6 C          63.7174   88.5465   13.0767 C.3     1  UNL1        0.1908
      7 C          62.4883   88.4366   12.2239 C.3     1  UNL1        0.1359
      8 N          61.6981   87.1617   12.2080 N.am    1  UNL1       -0.2705
      9 C          62.1370   85.9968   13.0448 C.2     1  UNL1        0.2445
     10 O          61.3468   84.7219   13.0289 O.2     1  UNL1       -0.2731
     11 C          63.3662   86.1067   13.8975 C.3     1  UNL1        0.1577
     12 N          64.5076   89.8214   13.0926 N.am    1  UNL1       -0.1863
     13 C          64.0687   90.9864   12.2558 C.2     1  UNL1        0.3191
     14 O          62.8395   90.8765   11.4031 O.2     1  UNL1       -0.2512
     15 N          64.8589   92.2613   12.2718 N.am    1  UNL1       -0.2836
     16 H          65.6656   92.3334   12.8314 H       1  UNL1        0.1513
     17 C          66.5270   91.2062   13.9613 C.3     1  UNL1        0.1188
     18 C          67.0258   92.6852   16.0382 C.2     1  UNL1       -0.0034
     19 C          67.3901   91.5389   15.1420 C.2     1  UNL1       -0.0071
     20 C          60.4690   87.0518   11.3553 C.3     1  UNL1        0.1217
     21 C          60.5812   87.1437    9.8623 C.ar    1  UNL1        0.0135
     22 C          61.0499   85.9587    9.0711 C.ar    1  UNL1       -0.0012
     23 C          61.1622   86.0505    7.5782 C.ar    1  UNL1       -0.0002
     24 C          60.8057   87.3274    6.8764 C.ar    1  UNL1        0.0016
     25 C          60.3370   88.5124    7.6676 C.ar    1  UNL1        0.0214
     26 C          59.9185   89.8926    7.2554 C.ar    1  UNL1        0.0722
     27 C          59.5476   90.6537    8.4935 C.ar    1  UNL1        0.0805
     28 N          59.7369   89.7440    9.6710 N.ar    1  UNL1       -0.3241
     29 C          59.4829   90.0958   11.1068 C.3     1  UNL1        0.1305
     30 C          60.2247   88.4205    9.1605 C.ar    1  UNL1        0.0577
     31 C          59.8780   90.4192    5.8513 C.2     1  UNL1        0.2510
     32 O          58.6797   90.1597    4.9872 O.2     1  UNL1       -0.2698
     33 N          61.0359   91.2053    5.3115 N.am    1  UNL1       -0.2791
     34 H          61.8223   91.3756    5.8787 H       1  UNL1        0.1552
     35 C          60.9955   91.7319    3.9076 C.ar    1  UNL1        0.0701
     36 C          62.1774   91.5464    3.0028 C.ar    1  UNL1        0.0191
     37 C          62.1370   92.0729    1.5988 C.ar    1  UNL1        0.0356
     38 C          60.9148   92.7850    1.0997 C.ar    1  UNL1        0.1319
     39 N          59.7329   92.9706    2.0046 N.ar    1  UNL1       -0.2279
     40 C          59.7733   92.4440    3.4085 C.ar    1  UNL1        0.1149
     41 N          60.8744   93.3116   -0.3042 N.pl3   1  UNL1       -0.2881
     42 C          59.8102   92.8417   -1.2512 C.3     1  UNL1        0.1242
     43 C          59.7697   93.3683   -2.6551 C.3     1  UNL1        0.1636
     44 O          60.7935   94.3648   -3.1122 O.3     1  UNL1       -0.3501
     45 C          61.8577   94.8347   -2.1653 C.3     1  UNL1        0.1636
     46 C          61.8982   94.3081   -0.7613 C.3     1  UNL1        0.1242
     47 C          63.8051   84.9418   14.7343 C.3     1  UNL1        0.0556
     48 C          63.4626   83.5438   14.3121 C.ar    1  UNL1       -0.0198
     49 C          62.2985   82.8350   14.9386 C.ar    1  UNL1       -0.0011
     50 C          61.9560   81.4370   14.5164 C.ar    1  UNL1        0.0363
     51 C          62.7775   80.7477   13.4677 C.ar    1  UNL1        0.1337
     52 O          62.4350   79.3497   13.0455 O.3     1  UNL1       -0.5055
     53 C          63.9417   81.4564   12.8411 C.ar    1  UNL1        0.0363
     54 C          64.2842   82.8545   13.2633 C.ar    1  UNL1       -0.0011
     55 H          61.7078   78.9070   13.4369 H       1  UNL1        0.2922
     56 C          64.4199   93.4262   11.4350 C.3     1  UNL1        0.1177
     57 C          65.4217   94.1738   10.6058 C.ar    1  UNL1       -0.0025
     58 C          66.5544   93.4376    9.9538 C.ar    1  UNL1       -0.0026
     59 C          67.5562   94.1851    9.1246 C.ar    1  UNL1       -0.0003
     60 C          67.4253   95.6688    8.9473 C.ar    1  UNL1       -0.0000
     61 C          66.2926   96.4051    9.5993 C.ar    1  UNL1       -0.0003
     62 C          65.2908   95.6575   10.4285 C.ar    1  UNL1       -0.0026
@<TRIPOS>BOND
     1    18    19    2
     2    19    17    1
     3    17     1    1
     4     1     2    1
     5     2     3    1
     6     3     4    2
     7     3     5   am
     8     5     6    1
     9     6     7    1
    10     7     8    1
    11     8    20    1
    12    20    21    1
    13    21    22   ar
    14    22    23   ar
    15    23    24   ar
    16    24    25   ar
    17    25    26   ar
    18    26    31    1
    19    31    32    2
    20    31    33   am
    21    33    35    1
    22    35    36   ar
    23    36    37   ar
    24    37    38   ar
    25    38    41    1
    26    41    42    1
    27    42    43    1
    28    43    44    1
    29    44    45    1
    30    45    46    1
    31    38    39   ar
    32    39    40   ar
    33    26    27   ar
    34    27    28   ar
    35    28    29    1
    36    28    30   ar
    37     8     9   am
    38     9    10    2
    39     9    11    1
    40    11    47    1
    41    47    48    1
    42    48    49   ar
    43    49    50   ar
    44    50    51   ar
    45    51    52    1
    46    51    53   ar
    47    53    54   ar
    48     6    12    1
    49    12    13   am
    50    13    14    2
    51    13    15   am
    52    15    56    1
    53    56    57    1
    54    57    58   ar
    55    58    59   ar
    56    59    60   ar
    57    60    61   ar
    58    61    62   ar
    59    12     1    1
    60    62    57   ar
    61    11     5    1
    62    54    48   ar
    63    30    21   ar
    64    30    25   ar
    65    40    35   ar
    66    46    41    1
    67    33    34    1
    68    52    55    1
    69    15    16    1
@<TRIPOS>MOLECULE
*****
 62 69 0 0 0
SMALL
GASTEIGER

@<TRIPOS>ATOM
      1 N          65.7034   89.5303   14.4415 N.3     1  UNL1       -0.1862
      2 C          66.0148   88.3076   15.2526 C.3     1  UNL1        0.1775
      3 C          65.2137   87.0545   15.0582 C.2     1  UNL1        0.2452
      4 O          65.5251   85.8317   15.8694 O.2     1  UNL1       -0.2732
      5 N          64.1011   87.0240   14.0527 N.am    1  UNL1       -0.2541
      6 C          63.7896   88.2467   13.2415 C.3     1  UNL1        0.1908
      7 C          62.6770   88.2163   12.2359 C.3     1  UNL1        0.1359
      8 N          61.8758   86.9631   12.0415 N.am    1  UNL1       -0.2705
      9 C          62.1873   85.7404   12.8527 C.2     1  UNL1        0.2445
     10 O          61.3862   84.4873   12.6583 O.2     1  UNL1       -0.2731
     11 C          63.2999   85.7709   13.8583 C.3     1  UNL1        0.1577
     12 N          64.5908   89.4998   13.4359 N.am    1  UNL1       -0.1863
     13 C          64.2793   90.7226   12.6247 C.2     1  UNL1        0.3191
     14 O          63.1667   90.6921   11.6192 O.2     1  UNL1       -0.2512
     15 N          65.0805   91.9757   12.8191 N.am    1  UNL1       -0.2836
     16 H          65.8107   91.9957   13.4791 H       1  UNL1        0.1513
     17 C          66.5045   90.7834   14.6359 C.3     1  UNL1        0.1188
     18 C          67.0368   92.8646   16.0971 C.2     1  UNL1       -0.0034
     19 C          66.0828   91.7914   15.6635 C.2     1  UNL1       -0.0071
     20 C          60.7632   86.9327   11.0360 C.3     1  UNL1        0.1217
     21 C          60.3782   88.1849   10.3053 C.ar    1  UNL1        0.0135
     22 C          60.0423   89.4285   11.0738 C.ar    1  UNL1       -0.0012
     23 C          59.6572   90.6806   10.3432 C.ar    1  UNL1       -0.0002
     24 C          59.6081   90.6891    8.8440 C.ar    1  UNL1        0.0016
     25 C          59.9440   89.4456    8.0755 C.ar    1  UNL1        0.0214
     26 C          59.9825   89.1543    6.6046 C.ar    1  UNL1        0.0722
     27 C          60.3913   87.7222    6.4261 C.ar    1  UNL1        0.0805
     28 N          60.6055   87.1284    7.7867 N.ar    1  UNL1       -0.3241
     29 C          61.0229   85.7172    8.0770 C.3     1  UNL1        0.1305
     30 C          60.3290   88.1934    8.8061 C.ar    1  UNL1        0.0577
     31 C          59.6674   90.1249    5.5051 C.2     1  UNL1        0.2510
     32 O          58.2435   90.3561    5.0940 O.2     1  UNL1       -0.2698
     33 N          60.7763   90.8642    4.8167 N.am    1  UNL1       -0.2791
     34 H          61.7108   90.7124    5.0865 H       1  UNL1        0.1552
     35 C          60.4613   91.8347    3.7173 C.ar    1  UNL1        0.0701
     36 C          61.5698   92.4211    2.8942 C.ar    1  UNL1        0.0191
     37 C          61.2549   93.3916    1.7947 C.ar    1  UNL1        0.0356
     38 C          59.8316   93.7758    1.5183 C.ar    1  UNL1        0.1319
     39 N          58.7231   93.1895    2.3414 N.ar    1  UNL1       -0.2279
     40 C          59.0379   92.2189    3.4409 C.ar    1  UNL1        0.1149
     41 N          59.5166   94.7464    0.4189 N.pl3   1  UNL1       -0.2881
     42 C          60.4508   95.8846    0.1327 C.3     1  UNL1        0.1242
     43 C          60.1359   96.8552   -0.9667 C.3     1  UNL1        0.1636
     44 O          58.8868   96.6876   -1.7801 O.3     1  UNL1       -0.3501
     45 C          57.9525   95.5495   -1.4940 C.3     1  UNL1        0.1636
     46 C          58.2675   94.5788   -0.3945 C.3     1  UNL1        0.1242
     47 C          63.6113   84.5482   14.6694 C.3     1  UNL1        0.0556
     48 C          63.3118   83.1858   14.1178 C.ar    1  UNL1       -0.0198
     49 C          64.1654   82.6150   13.0245 C.ar    1  UNL1       -0.0011
     50 C          63.8658   81.2527   12.4729 C.ar    1  UNL1        0.0363
     51 C          62.7126   80.4611   13.0147 C.ar    1  UNL1        0.1337
     52 O          62.4130   79.0988   12.4631 O.3     1  UNL1       -0.5055
     53 C          61.8589   81.0320   14.1081 C.ar    1  UNL1        0.0363
     54 C          62.1585   82.3943   14.6596 C.ar    1  UNL1       -0.0011
     55 H          62.9463   78.7422   11.7801 H       1  UNL1        0.2922
     56 C          64.7690   93.1984   12.0079 C.3     1  UNL1        0.1177
     57 C          65.7739   93.7225   11.0253 C.ar    1  UNL1       -0.0025
     58 C          65.7646   95.1734   10.6449 C.ar    1  UNL1       -0.0026
     59 C          66.7695   95.6976    9.6623 C.ar    1  UNL1       -0.0003
     60 C          67.7835   94.7708    9.0600 C.ar    1  UNL1       -0.0000
     61 C          67.7928   93.3198    9.4404 C.ar    1  UNL1       -0.0003
     62 C          66.7880   92.7957   10.4230 C.ar    1  UNL1       -0.0026
@<TRIPOS>BOND
     1    18    19    2
     2    19    17    1
     3    17     1    1
     4     1     2    1
     5     2     3    1
     6     3     4    2
     7     3     5   am
     8     5     6    1
     9     6     7    1
    10     7     8    1
    11     8    20    1
    12    20    21    1
    13    21    22   ar
    14    22    23   ar
    15    23    24   ar
    16    24    25   ar
    17    25    26   ar
    18    26    31    1
    19    31    32    2
    20    31    33   am
    21    33    35    1
    22    35    36   ar
    23    36    37   ar
    24    37    38   ar
    25    38    41    1
    26    41    42    1
    27    42    43    1
    28    43    44    1
    29    44    45    1
    30    45    46    1
    31    38    39   ar
    32    39    40   ar
    33    26    27   ar
    34    27    28   ar
    35    28    29    1
    36    28    30   ar
    37     8     9   am
    38     9    10    2
    39     9    11    1
    40    11    47    1
    41    47    48    1
    42    48    49   ar
    43    49    50   ar
    44    50    51   ar
    45    51    52    1
    46    51    53   ar
    47    53    54   ar
    48     6    12    1
    49    12    13   am
    50    13    14    2
    51    13    15   am
    52    15    56    1
    53    56    57    1
    54    57    58   ar
    55    58    59   ar
    56    59    60   ar
    57    60    61   ar
    58    61    62   ar
    59    12     1    1
    60    62    57   ar
    61    11     5    1
    62    54    48   ar
    63    30    21   ar
    64    30    25   ar
    65    40    35   ar
    66    46    41    1
    67    33    34    1
    68    52    55    1
    69    15    16    1
