@<TRIPOS>MOLECULE
*****
 37 42 0 0 0
SMALL
GASTEIGER

@<TRIPOS>ATOM
      1 C          65.1023   91.5957   12.4934 C.ar    1  UNL1        0.1087
      2 C          63.8640   90.8856   12.0326 C.ar    1  UNL1        0.0477
      3 C          63.0964   90.0202   12.9876 C.ar    1  UNL1        0.1580
      4 C          63.5671   89.8648   14.4033 C.ar    1  UNL1        0.1356
      5 N          64.8055   90.5749   14.8641 N.ar    1  UNL1       -0.2403
      6 C          65.5730   91.4403   13.9091 C.ar    1  UNL1        0.0921
      7 C          64.5907   96.8539    9.8702 C.3     1  UNL1        0.0581
      8 C          65.8031   96.0148    9.5944 C.2     1  UNL1        0.1250
      9 N          66.9420   96.3816    8.6899 N.2     1  UNL1       -0.1486
     10 N          67.9321   95.2550    8.7111 N.2     1  UNL1       -0.1443
     11 C          67.4051   94.1919    9.6287 C.2     1  UNL1        0.1777
     12 C          67.9534   92.8570   10.0377 C.3     1  UNL1        0.3144
     13 N          67.1858   91.9916   10.9926 N.2     1  UNL1       -0.0529
     14 C          65.8699   92.4612   11.5385 C.2     1  UNL1        0.3724
     15 N          65.3216   93.7961   11.1295 N.2     1  UNL1       -0.0319
     16 C          66.0892   94.6615   10.1746 C.2     1  UNL1        0.2280
     17 C          66.8114   92.1505   14.3699 C.ar    1  UNL1        0.0586
     18 C          66.8607   93.3123   15.3174 C.ar    1  UNL1        0.0453
     19 C          68.2976   93.7033   15.4971 C.ar    1  UNL1        0.1798
     20 O          69.1365   92.7830   14.6607 O.2     1  UNL1       -0.4473
     21 C          68.2179   91.8234   13.9641 C.ar    1  UNL1        0.1812
     22 O          61.8581   89.3101   12.5268 O.3     1  UNL1       -0.4724
     23 C          61.0736   89.8468   11.3663 C.3     1  UNL1        0.2211
     24 C          60.6333   88.9248   10.2681 C.3     1  UNL1        0.0995
     25 N          60.3425   89.4711    8.9017 N.3     1  UNL1       -0.3190
     26 H          60.0582   88.7102    8.2848 H       1  UNL1        0.1189
     27 H          61.1806   89.9166    8.5282 H       1  UNL1        0.1189
     28 C          60.4837   87.4566   10.5363 C.3     1  UNL1        0.0472
     29 C          61.4229   86.4777    9.8961 C.2     1  UNL1       -0.0005
     30 C          61.6943   86.3481    8.4266 C.2     1  UNL1        0.0942
     31 N          62.6947   85.2470    8.2353 N.2     1  UNL1       -0.2482
     32 C          63.0417   84.6960    9.5867 C.2     1  UNL1        0.0631
     33 C          63.9718   83.6000   10.0151 C.3     1  UNL1        0.0717
     34 C          64.1159   83.2646   11.4701 C.2     1  UNL1       -0.0198
     35 C          63.3299   84.0253   12.4965 C.2     1  UNL1       -0.0042
     36 C          62.3998   85.1214   12.0680 C.2     1  UNL1        0.0006
     37 C          62.2557   85.4567   10.6131 C.2     1  UNL1        0.0114
@<TRIPOS>BOND
     1     7     8    1
     2     8     9    2
     3     9    10    1
     4    10    11    2
     5    11    12    1
     6    12    13    1
     7    13    14    2
     8    14     1    1
     9     1     2   ar
    10     2     3   ar
    11     3    22    1
    12    22    23    1
    13    23    24    1
    14    24    25    1
    15    24    28    1
    16    28    29    1
    17    29    30    2
    18    30    31    1
    19    31    32    2
    20    32    33    1
    21    33    34    1
    22    34    35    2
    23    35    36    1
    24    36    37    2
    25     3     4   ar
    26     4     5   ar
    27     5     6   ar
    28     6    17    1
    29    17    18   ar
    30    18    19   ar
    31    19    20   ar
    32    20    21   ar
    33    14    15    1
    34    15    16    2
    35    16     8    1
    36    16    11    1
    37     6     1   ar
    38    21    17   ar
    39    37    29    1
    40    37    32    1
    41    25    26    1
    42    25    27    1
@<TRIPOS>MOLECULE
*****
 37 42 0 0 0
SMALL
GASTEIGER

@<TRIPOS>ATOM
      1 C          64.1002   90.7650   13.1921 C.ar    1  UNL1        0.1087
      2 C          63.2730   90.5843   11.9539 C.ar    1  UNL1        0.0477
      3 C          63.5659   91.4014   10.7304 C.ar    1  UNL1        0.1580
      4 C          64.6859   92.3990   10.7453 C.ar    1  UNL1        0.1356
      5 N          65.5131   92.5797   11.9836 N.ar    1  UNL1       -0.2403
      6 C          65.2202   91.7626   13.2069 C.ar    1  UNL1        0.0921
      7 C          64.3366   85.1348   14.9349 C.3     1  UNL1        0.0581
      8 C          63.8585   86.1788   15.9000 C.2     1  UNL1        0.1250
      9 N          63.4174   85.9372   17.3132 N.2     1  UNL1       -0.1486
     10 N          63.0238   87.2568   17.9079 N.2     1  UNL1       -0.1443
     11 C          63.2216   88.3140   16.8623 C.2     1  UNL1        0.1777
     12 C          62.9986   89.7972   16.8799 C.3     1  UNL1        0.3144
     13 N          63.2914   90.6141   15.6565 N.2     1  UNL1       -0.0529
     14 C          63.8073   89.9479   14.4155 C.2     1  UNL1        0.3724
     15 N          64.0303   88.4647   14.3979 N.2     1  UNL1       -0.0319
     16 C          63.7374   87.6478   15.6213 C.2     1  UNL1        0.2280
     17 C          66.0473   91.9432   14.4452 C.ar    1  UNL1        0.0586
     18 C          67.4604   91.4781   14.6372 C.ar    1  UNL1        0.0453
     19 C          67.8929   91.8681   16.0195 C.ar    1  UNL1        0.1798
     20 O          66.7472   92.5743   16.6818 O.2     1  UNL1       -0.4473
     21 C          65.6066   92.6208   15.7088 C.ar    1  UNL1        0.1812
     22 O          62.7388   91.2207    9.4922 O.3     1  UNL1       -0.4724
     23 C          61.9226   89.9754    9.3106 C.3     1  UNL1        0.2211
     24 C          60.6599   89.7848   10.0974 C.3     1  UNL1        0.0995
     25 N          59.9614   90.9709   10.6936 N.3     1  UNL1       -0.3190
     26 H          59.1268   90.6596   11.1906 H       1  UNL1        0.1189
     27 H          59.6937   91.6166    9.9508 H       1  UNL1        0.1189
     28 C          60.0956   88.4081   10.2882 C.3     1  UNL1        0.0472
     29 C          59.9765   87.4776    9.1177 C.2     1  UNL1       -0.0005
     30 C          58.7704   87.3129    8.2413 C.2     1  UNL1        0.0942
     31 N          59.0911   86.2819    7.2001 N.2     1  UNL1       -0.2482
     32 C          60.4957   85.8094    7.4330 C.2     1  UNL1        0.0631
     33 C          61.3469   84.8017    6.7190 C.3     1  UNL1        0.0717
     34 C          62.7455   84.5330    7.1901 C.2     1  UNL1       -0.0198
     35 C          63.2927   85.2719    8.3752 C.2     1  UNL1       -0.0042
     36 C          62.4413   86.2796    9.0892 C.2     1  UNL1        0.0006
     37 C          61.0428   86.5483    8.6181 C.2     1  UNL1        0.0114
@<TRIPOS>BOND
     1     7     8    1
     2     8     9    2
     3     9    10    1
     4    10    11    2
     5    11    12    1
     6    12    13    1
     7    13    14    2
     8    14     1    1
     9     1     2   ar
    10     2     3   ar
    11     3    22    1
    12    22    23    1
    13    23    24    1
    14    24    25    1
    15    24    28    1
    16    28    29    1
    17    29    30    2
    18    30    31    1
    19    31    32    2
    20    32    33    1
    21    33    34    1
    22    34    35    2
    23    35    36    1
    24    36    37    2
    25     3     4   ar
    26     4     5   ar
    27     5     6   ar
    28     6    17    1
    29    17    18   ar
    30    18    19   ar
    31    19    20   ar
    32    20    21   ar
    33    14    15    1
    34    15    16    2
    35    16     8    1
    36    16    11    1
    37     6     1   ar
    38    21    17   ar
    39    37    29    1
    40    37    32    1
    41    25    26    1
    42    25    27    1
@<TRIPOS>MOLECULE
*****
 37 42 0 0 0
SMALL
GASTEIGER

@<TRIPOS>ATOM
      1 C          63.6778   90.3397   13.0583 C.ar    1  UNL1        0.1087
      2 C          62.7696   90.0209   11.9078 C.ar    1  UNL1        0.0477
      3 C          62.9499   90.7210   10.5935 C.ar    1  UNL1        0.1580
      4 C          64.0384   91.7400   10.4297 C.ar    1  UNL1        0.1356
      5 N          64.9466   92.0589   11.5802 N.ar    1  UNL1       -0.2403
      6 C          64.7663   91.3587   12.8945 C.ar    1  UNL1        0.0921
      7 C          64.1140   84.8964   15.2879 C.3     1  UNL1        0.0581
      8 C          63.7098   86.0249   16.1896 C.2     1  UNL1        0.1250
      9 N          63.3926   85.9151   17.6516 N.2     1  UNL1       -0.1486
     10 N          63.0385   87.2837   18.1531 N.2     1  UNL1       -0.1443
     11 C          63.1369   88.2394   17.0011 C.2     1  UNL1        0.1777
     12 C          62.9024   89.7175   16.9003 C.3     1  UNL1        0.3144
     13 N          63.0827   90.4176   15.5861 N.2     1  UNL1       -0.0529
     14 C          63.4975   89.6395   14.3726 C.2     1  UNL1        0.3724
     15 N          63.7321   88.1615   14.4733 N.2     1  UNL1       -0.0319
     16 C          63.5518   87.4614   15.7876 C.2     1  UNL1        0.2280
     17 C          65.6745   91.6776   14.0450 C.ar    1  UNL1        0.0586
     18 C          67.1161   91.2814   14.1663 C.ar    1  UNL1        0.0453
     19 C          67.6330   91.8075   15.4724 C.ar    1  UNL1        0.1798
     20 O          66.5109   92.5289   16.1583 O.2     1  UNL1       -0.4473
     21 C          65.3004   92.4486   15.2761 C.ar    1  UNL1        0.1812
     22 O          62.0418   90.4022    9.4431 O.3     1  UNL1       -0.4724
     23 C          60.6531   89.8972    9.7014 C.3     1  UNL1        0.2211
     24 C          60.2860   88.4903    9.3329 C.3     1  UNL1        0.0995
     25 N          59.4567   88.2271    8.1110 N.3     1  UNL1       -0.3190
     26 H          59.3040   87.2233    8.0135 H       1  UNL1        0.1189
     27 H          59.9445   88.5783    7.2869 H       1  UNL1        0.1189
     28 C          60.7482   87.3466   10.1863 C.3     1  UNL1        0.0472
     29 C          61.6760   86.3139    9.6181 C.2     1  UNL1       -0.0005
     30 C          62.0245   86.1435    8.1692 C.2     1  UNL1        0.0942
     31 N          62.9821   84.9947    8.0547 N.2     1  UNL1       -0.2482
     32 C          63.2255   84.4550    9.4330 C.2     1  UNL1        0.0631
     33 C          64.0778   83.3265    9.9330 C.3     1  UNL1        0.0717
     34 C          64.1229   83.0133   11.3993 C.2     1  UNL1       -0.0198
     35 C          63.3157   83.8287   12.3655 C.2     1  UNL1       -0.0042
     36 C          62.4634   84.9572   11.8655 C.2     1  UNL1        0.0006
     37 C          62.4183   85.2703   10.3992 C.2     1  UNL1        0.0114
@<TRIPOS>BOND
     1     7     8    1
     2     8     9    2
     3     9    10    1
     4    10    11    2
     5    11    12    1
     6    12    13    1
     7    13    14    2
     8    14     1    1
     9     1     2   ar
    10     2     3   ar
    11     3    22    1
    12    22    23    1
    13    23    24    1
    14    24    25    1
    15    24    28    1
    16    28    29    1
    17    29    30    2
    18    30    31    1
    19    31    32    2
    20    32    33    1
    21    33    34    1
    22    34    35    2
    23    35    36    1
    24    36    37    2
    25     3     4   ar
    26     4     5   ar
    27     5     6   ar
    28     6    17    1
    29    17    18   ar
    30    18    19   ar
    31    19    20   ar
    32    20    21   ar
    33    14    15    1
    34    15    16    2
    35    16     8    1
    36    16    11    1
    37     6     1   ar
    38    21    17   ar
    39    37    29    1
    40    37    32    1
    41    25    26    1
    42    25    27    1
@<TRIPOS>MOLECULE
*****
 37 42 0 0 0
SMALL
GASTEIGER

@<TRIPOS>ATOM
      1 C          62.2706   87.1820   10.6693 C.ar    1  UNL1        0.1087
      2 C          62.6390   88.2379   11.6690 C.ar    1  UNL1        0.0477
      3 C          62.2758   89.6709   11.4145 C.ar    1  UNL1        0.1580
      4 C          61.5444   90.0480   10.1604 C.ar    1  UNL1        0.1356
      5 N          61.1761   88.9919    9.1607 N.ar    1  UNL1       -0.2403
      6 C          61.5392   87.5590    9.4152 C.ar    1  UNL1        0.0921
      7 C          62.0060   83.2436   15.0523 C.3     1  UNL1        0.0581
      8 C          62.5881   82.8304   13.7330 C.2     1  UNL1        0.1250
      9 N          63.1304   81.4733   13.3949 N.2     1  UNL1       -0.1486
     10 N          63.6074   81.5059   11.9732 N.2     1  UNL1       -0.1443
     11 C          63.3599   82.8831   11.4326 C.2     1  UNL1        0.1777
     12 C          63.6269   83.4975   10.0905 C.3     1  UNL1        0.3144
     13 N          63.2638   84.9304    9.8361 N.2     1  UNL1       -0.0529
     14 C          62.6337   85.7490   10.9238 C.2     1  UNL1        0.3724
     15 N          62.3668   85.1346   12.2659 N.2     1  UNL1       -0.0319
     16 C          62.7299   83.7016   12.5203 C.2     1  UNL1        0.2280
     17 C          61.1708   86.5030    8.4155 C.ar    1  UNL1        0.0586
     18 C          62.1295   85.6283    7.6633 C.ar    1  UNL1        0.0453
     19 C          61.3303   84.7210    6.7755 C.ar    1  UNL1        0.1798
     20 O          59.8776   85.0351    6.9790 O.2     1  UNL1       -0.4473
     21 C          59.7791   86.1364    7.9926 C.ar    1  UNL1        0.1812
     22 O          62.6442   90.7269   12.4141 O.3     1  UNL1       -0.4724
     23 C          63.7163   91.7247   12.0904 C.3     1  UNL1        0.2211
     24 C          64.9224   91.8431   12.9744 C.3     1  UNL1        0.0995
     25 N          65.7048   93.1225   13.0083 N.3     1  UNL1       -0.3190
     26 H          66.4853   93.0266   13.6578 H       1  UNL1        0.1189
     27 H          65.0988   93.8836   13.3150 H       1  UNL1        0.1189
     28 C          65.3461   90.6821   13.8244 C.3     1  UNL1        0.0472
     29 C          64.5010   90.2572   14.9887 C.2     1  UNL1       -0.0005
     30 C          63.8323   91.1707   15.9727 C.2     1  UNL1        0.0942
     31 N          63.0944   90.3222   16.9655 N.2     1  UNL1       -0.2482
     32 C          63.3071   88.8843   16.5950 C.2     1  UNL1        0.0631
     33 C          62.8215   87.6064   17.2123 C.3     1  UNL1        0.0717
     34 C          63.2053   86.2882   16.6079 C.2     1  UNL1       -0.0198
     35 C          64.0746   86.2481   15.3862 C.2     1  UNL1       -0.0042
     36 C          64.5602   87.5260   14.7689 C.2     1  UNL1        0.0006
     37 C          64.1765   88.8441   15.3733 C.2     1  UNL1        0.0114
@<TRIPOS>BOND
     1     7     8    1
     2     8     9    2
     3     9    10    1
     4    10    11    2
     5    11    12    1
     6    12    13    1
     7    13    14    2
     8    14     1    1
     9     1     2   ar
    10     2     3   ar
    11     3    22    1
    12    22    23    1
    13    23    24    1
    14    24    25    1
    15    24    28    1
    16    28    29    1
    17    29    30    2
    18    30    31    1
    19    31    32    2
    20    32    33    1
    21    33    34    1
    22    34    35    2
    23    35    36    1
    24    36    37    2
    25     3     4   ar
    26     4     5   ar
    27     5     6   ar
    28     6    17    1
    29    17    18   ar
    30    18    19   ar
    31    19    20   ar
    32    20    21   ar
    33    14    15    1
    34    15    16    2
    35    16     8    1
    36    16    11    1
    37     6     1   ar
    38    21    17   ar
    39    37    29    1
    40    37    32    1
    41    25    26    1
    42    25    27    1
@<TRIPOS>MOLECULE
*****
 37 42 0 0 0
SMALL
GASTEIGER

@<TRIPOS>ATOM
      1 C          63.3095   85.1583   13.8599 C.ar    1  UNL1        0.1087
      2 C          63.5679   86.5255   14.4201 C.ar    1  UNL1        0.0477
      3 C          63.6222   86.7296   15.9052 C.ar    1  UNL1        0.1580
      4 C          63.4183   85.5664   16.8300 C.ar    1  UNL1        0.1356
      5 N          63.1599   84.1991   16.2697 N.ar    1  UNL1       -0.2403
      6 C          63.1056   83.9951   14.7847 C.ar    1  UNL1        0.0921
      7 C          60.2693   87.1440    9.2117 C.3     1  UNL1        0.0581
      8 C          61.3465   86.1223    8.9976 C.2     1  UNL1        0.1250
      9 N          61.7495   85.5287    7.6804 N.2     1  UNL1       -0.1486
     10 N          62.8620   84.5545    7.9320 N.2     1  UNL1       -0.1443
     11 C          63.1465   84.5460    9.4047 C.2     1  UNL1        0.1777
     12 C          64.1375   83.7811   10.2311 C.3     1  UNL1        0.3144
     13 N          64.1918   83.9852   11.7161 N.2     1  UNL1       -0.0529
     14 C          63.2552   84.9542   12.3747 C.2     1  UNL1        0.3724
     15 N          62.2642   85.7191   11.5484 N.2     1  UNL1       -0.0319
     16 C          62.2099   85.5150   10.0633 C.2     1  UNL1        0.2280
     17 C          62.8472   82.6278   14.2244 C.ar    1  UNL1        0.0586
     18 C          61.5115   81.9520   14.1289 C.ar    1  UNL1        0.0453
     19 C          61.7181   80.6028   13.5067 C.ar    1  UNL1        0.1798
     20 O          63.1815   80.4447   13.2178 O.2     1  UNL1       -0.4473
     21 C          63.8793   81.6962   13.6613 C.ar    1  UNL1        0.1812
     22 O          63.8805   88.0969   16.4654 O.3     1  UNL1       -0.4724
     23 C          63.1886   89.2911   15.8780 C.3     1  UNL1        0.2211
     24 C          63.9158   90.5979   15.7629 C.3     1  UNL1        0.0995
     25 N          63.4598   91.7829   16.5617 N.3     1  UNL1       -0.3190
     26 H          64.0636   92.5803   16.3619 H       1  UNL1        0.1189
     27 H          63.5073   91.5612   17.5562 H       1  UNL1        0.1189
     28 C          65.0990   90.7198   14.8491 C.3     1  UNL1        0.0472
     29 C          64.9302   91.3022   13.4770 C.2     1  UNL1       -0.0005
     30 C          65.6639   92.4890   12.9265 C.2     1  UNL1        0.0942
     31 N          65.1851   92.7202   11.5239 N.2     1  UNL1       -0.2482
     32 C          64.1554   91.6763   11.2076 C.2     1  UNL1        0.0631
     33 C          63.3410   91.4106    9.9764 C.3     1  UNL1        0.0717
     34 C          62.3688   90.2685    9.9522 C.2     1  UNL1       -0.0198
     35 C          62.2113   89.3921   11.1593 C.2     1  UNL1       -0.0042
     36 C          63.0258   89.6578   12.3905 C.2     1  UNL1        0.0006
     37 C          63.9979   90.8000   12.4147 C.2     1  UNL1        0.0114
@<TRIPOS>BOND
     1     7     8    1
     2     8     9    2
     3     9    10    1
     4    10    11    2
     5    11    12    1
     6    12    13    1
     7    13    14    2
     8    14     1    1
     9     1     2   ar
    10     2     3   ar
    11     3    22    1
    12    22    23    1
    13    23    24    1
    14    24    25    1
    15    24    28    1
    16    28    29    1
    17    29    30    2
    18    30    31    1
    19    31    32    2
    20    32    33    1
    21    33    34    1
    22    34    35    2
    23    35    36    1
    24    36    37    2
    25     3     4   ar
    26     4     5   ar
    27     5     6   ar
    28     6    17    1
    29    17    18   ar
    30    18    19   ar
    31    19    20   ar
    32    20    21   ar
    33    14    15    1
    34    15    16    2
    35    16     8    1
    36    16    11    1
    37     6     1   ar
    38    21    17   ar
    39    37    29    1
    40    37    32    1
    41    25    26    1
    42    25    27    1
@<TRIPOS>MOLECULE
*****
 37 42 0 0 0
SMALL
GASTEIGER

@<TRIPOS>ATOM
      1 C          63.5551   87.9177   13.1417 C.ar    1  UNL1        0.1087
      2 C          64.2441   88.8674   14.0762 C.ar    1  UNL1        0.0477
      3 C          64.2812   90.3338   13.7624 C.ar    1  UNL1        0.1580
      4 C          63.6292   90.8504   12.5142 C.ar    1  UNL1        0.1356
      5 N          62.9402   89.9006   11.5797 N.ar    1  UNL1       -0.2403
      6 C          62.9032   88.4343   11.8935 C.ar    1  UNL1        0.0921
      7 C          63.9460   82.7581   10.3102 C.3     1  UNL1        0.0581
      8 C          63.7490   82.7622   11.7972 C.2     1  UNL1        0.1250
      9 N          63.6364   81.5512   12.6751 N.2     1  UNL1       -0.1486
     10 N          63.4478   82.0187   14.0878 N.2     1  UNL1       -0.1443
     11 C          63.4439   83.5187   14.0831 C.2     1  UNL1        0.1777
     12 C          63.2948   84.5254   15.1850 C.3     1  UNL1        0.3144
     13 N          63.3319   85.9917   14.8712 N.2     1  UNL1       -0.0529
     14 C          63.5180   86.4513   13.4555 C.2     1  UNL1        0.3724
     15 N          63.6671   85.4445   12.3536 N.2     1  UNL1       -0.0319
     16 C          63.6300   83.9782   12.6674 C.2     1  UNL1        0.2280
     17 C          62.2142   87.4844   10.9590 C.ar    1  UNL1        0.0586
     18 C          62.7009   87.0756    9.6004 C.ar    1  UNL1        0.0453
     19 C          61.7051   86.1152    9.0208 C.ar    1  UNL1        0.1798
     20 O          60.6027   85.9305   10.0213 O.2     1  UNL1       -0.4473
     21 C          60.9174   86.7768   11.2191 C.ar    1  UNL1        0.1812
     22 O          64.9701   91.2836   14.6969 O.3     1  UNL1       -0.4724
     23 C          66.4684   91.3470   14.7316 C.3     1  UNL1        0.2211
     24 C          67.2078   92.1709   13.7195 C.3     1  UNL1        0.0995
     25 N          68.6989   92.0550   13.6029 N.3     1  UNL1       -0.3190
     26 H          69.0323   92.6815   12.8703 H       1  UNL1        0.1189
     27 H          68.9478   91.0941   13.3679 H       1  UNL1        0.1189
     28 C          66.4563   93.1106   12.8239 C.3     1  UNL1        0.0472
     29 C          66.8921   93.3003   11.4011 C.2     1  UNL1       -0.0005
     30 C          67.6587   92.3109   10.5744 C.2     1  UNL1        0.0942
     31 N          67.8782   92.9118    9.2177 N.2     1  UNL1       -0.2482
     32 C          67.2471   94.2726    9.2058 C.2     1  UNL1        0.0631
     33 C          67.1487   95.3241    8.1407 C.3     1  UNL1        0.0717
     34 C          66.4409   96.6157    8.4249 C.2     1  UNL1       -0.0198
     35 C          65.8315   96.8558    9.7743 C.2     1  UNL1       -0.0042
     36 C          65.9299   95.8042   10.8395 C.2     1  UNL1        0.0006
     37 C          66.6377   94.5127   10.5553 C.2     1  UNL1        0.0114
@<TRIPOS>BOND
     1     7     8    1
     2     8     9    2
     3     9    10    1
     4    10    11    2
     5    11    12    1
     6    12    13    1
     7    13    14    2
     8    14     1    1
     9     1     2   ar
    10     2     3   ar
    11     3    22    1
    12    22    23    1
    13    23    24    1
    14    24    25    1
    15    24    28    1
    16    28    29    1
    17    29    30    2
    18    30    31    1
    19    31    32    2
    20    32    33    1
    21    33    34    1
    22    34    35    2
    23    35    36    1
    24    36    37    2
    25     3     4   ar
    26     4     5   ar
    27     5     6   ar
    28     6    17    1
    29    17    18   ar
    30    18    19   ar
    31    19    20   ar
    32    20    21   ar
    33    14    15    1
    34    15    16    2
    35    16     8    1
    36    16    11    1
    37     6     1   ar
    38    21    17   ar
    39    37    29    1
    40    37    32    1
    41    25    26    1
    42    25    27    1
@<TRIPOS>MOLECULE
*****
 37 42 0 0 0
SMALL
GASTEIGER

@<TRIPOS>ATOM
      1 C          62.6352   87.5407   11.4734 C.ar    1  UNL1        0.1087
      2 C          63.1143   88.5402   12.4841 C.ar    1  UNL1        0.0477
      3 C          63.0183   90.0082   12.1910 C.ar    1  UNL1        0.1580
      4 C          62.4433   90.4767   10.8873 C.ar    1  UNL1        0.1356
      5 N          61.9642   89.4771    9.8765 N.ar    1  UNL1       -0.2403
      6 C          62.0602   88.0092   10.1696 C.ar    1  UNL1        0.0921
      7 C          62.5411   83.9260   16.1335 C.3     1  UNL1        0.0581
      8 C          62.7041   83.3440   14.7607 C.2     1  UNL1        0.1250
      9 N          62.8513   81.8878   14.4322 N.2     1  UNL1       -0.1486
     10 N          62.9866   81.7598   12.9439 N.2     1  UNL1       -0.1443
     11 C          62.9232   83.1368   12.3525 C.2     1  UNL1        0.1777
     12 C          63.0018   83.6257   10.9366 C.3     1  UNL1        0.3144
     13 N          62.9058   85.0936   10.6436 N.2     1  UNL1       -0.0529
     14 C          62.7312   86.0727   11.7665 C.2     1  UNL1        0.3724
     15 N          62.6526   85.5839   13.1824 N.2     1  UNL1       -0.0319
     16 C          62.7485   84.1159   13.4753 C.2     1  UNL1        0.2280
     17 C          61.5811   87.0097    9.1589 C.ar    1  UNL1        0.0586
     18 C          62.4490   86.1748    8.2646 C.ar    1  UNL1        0.0453
     19 C          61.5543   85.3187    7.4181 C.ar    1  UNL1        0.1798
     20 O          60.1334   85.6245    7.7892 O.2     1  UNL1       -0.4473
     21 C          60.1500   86.6695    8.8651 C.ar    1  UNL1        0.1812
     22 O          63.4974   91.0076   13.2017 O.3     1  UNL1       -0.4724
     23 C          64.6699   90.6837   14.0794 C.3     1  UNL1        0.2211
     24 C          65.7073   91.7298   14.3613 C.3     1  UNL1        0.0995
     25 N          65.6192   92.5561   15.6102 N.3     1  UNL1       -0.3190
     26 H          66.3998   93.2119   15.6397 H       1  UNL1        0.1189
     27 H          65.6576   91.9448   16.4258 H       1  UNL1        0.1189
     28 C          66.8329   91.9496   13.3945 C.3     1  UNL1        0.0472
     29 C          66.7511   93.0586   12.3878 C.2     1  UNL1       -0.0005
     30 C          66.0721   94.3813   12.5864 C.2     1  UNL1        0.0942
     31 N          66.2353   95.1798   11.3271 N.2     1  UNL1       -0.2482
     32 C          67.0151   94.3505   10.3501 C.2     1  UNL1        0.0631
     33 C          67.4760   94.6198    8.9484 C.3     1  UNL1        0.0717
     34 C          68.2558   93.5780    8.2021 C.2     1  UNL1       -0.0198
     35 C          68.5745   92.2671    8.8577 C.2     1  UNL1       -0.0042
     36 C          68.1135   91.9979   10.2595 C.2     1  UNL1        0.0006
     37 C          67.3338   93.0396   11.0057 C.2     1  UNL1        0.0114
@<TRIPOS>BOND
     1     7     8    1
     2     8     9    2
     3     9    10    1
     4    10    11    2
     5    11    12    1
     6    12    13    1
     7    13    14    2
     8    14     1    1
     9     1     2   ar
    10     2     3   ar
    11     3    22    1
    12    22    23    1
    13    23    24    1
    14    24    25    1
    15    24    28    1
    16    28    29    1
    17    29    30    2
    18    30    31    1
    19    31    32    2
    20    32    33    1
    21    33    34    1
    22    34    35    2
    23    35    36    1
    24    36    37    2
    25     3     4   ar
    26     4     5   ar
    27     5     6   ar
    28     6    17    1
    29    17    18   ar
    30    18    19   ar
    31    19    20   ar
    32    20    21   ar
    33    14    15    1
    34    15    16    2
    35    16     8    1
    36    16    11    1
    37     6     1   ar
    38    21    17   ar
    39    37    29    1
    40    37    32    1
    41    25    26    1
    42    25    27    1
@<TRIPOS>MOLECULE
*****
 37 42 0 0 0
SMALL
GASTEIGER

@<TRIPOS>ATOM
      1 C          63.2878   85.0135   13.8587 C.ar    1  UNL1        0.1087
      2 C          63.5407   86.3645   14.4592 C.ar    1  UNL1        0.0477
      3 C          63.5853   86.5263   15.9498 C.ar    1  UNL1        0.1580
      4 C          63.3770   85.3370   16.8399 C.ar    1  UNL1        0.1356
      5 N          63.1241   83.9859   16.2393 N.ar    1  UNL1       -0.2403
      6 C          63.0795   83.8242   14.7487 C.ar    1  UNL1        0.0921
      7 C          60.3496   87.2072    9.2385 C.3     1  UNL1        0.0581
      8 C          61.4013   86.1631    9.0066 C.2     1  UNL1        0.1250
      9 N          61.8017   85.5951    7.6773 N.2     1  UNL1       -0.1486
     10 N          62.8850   84.5846    7.9124 N.2     1  UNL1       -0.1443
     11 C          63.1541   84.5281    9.3870 C.2     1  UNL1        0.1777
     12 C          64.1157   83.7143   10.2012 C.3     1  UNL1        0.3144
     13 N          64.1603   83.8761   11.6918 N.2     1  UNL1       -0.0529
     14 C          63.2432   84.8517   12.3680 C.2     1  UNL1        0.3724
     15 N          62.2817   85.6655   11.5538 N.2     1  UNL1       -0.0319
     16 C          62.2371   85.5036   10.0632 C.2     1  UNL1        0.2280
     17 C          62.8266   82.4731   14.1481 C.ar    1  UNL1        0.0586
     18 C          61.5076   81.7602   14.1052 C.ar    1  UNL1        0.0453
     19 C          61.7141   80.4442   13.4155 C.ar    1  UNL1        0.1798
     20 O          63.1609   80.3438   13.0322 O.2     1  UNL1       -0.4473
     21 C          63.8484   81.5977   13.4850 C.ar    1  UNL1        0.1812
     22 O          63.8382   87.8774   16.5504 O.3     1  UNL1       -0.4724
     23 C          63.0599   89.0677   16.0735 C.3     1  UNL1        0.2211
     24 C          63.7712   90.3475   15.7481 C.3     1  UNL1        0.0995
     25 N          63.4225   91.6075   16.4837 N.3     1  UNL1       -0.3190
     26 H          63.9991   92.3742   16.1372 H       1  UNL1        0.1189
     27 H          63.5932   91.4774   17.4808 H       1  UNL1        0.1189
     28 C          64.8313   90.3676   14.6870 C.3     1  UNL1        0.0472
     29 C          65.4953   91.6600   14.3146 C.2     1  UNL1       -0.0005
     30 C          66.3063   92.5301   15.2285 C.2     1  UNL1        0.0942
     31 N          66.7771   93.7171   14.4415 N.2     1  UNL1       -0.2482
     32 C          66.2571   93.5807   13.0411 C.2     1  UNL1        0.0631
     33 C          66.4025   94.4498   11.8274 C.3     1  UNL1        0.0717
     34 C          65.7558   94.0477   10.5350 C.2     1  UNL1       -0.0198
     35 C          64.9636   92.7764   10.4566 C.2     1  UNL1       -0.0042
     36 C          64.8181   91.9072   11.6704 C.2     1  UNL1        0.0006
     37 C          65.4649   92.3094   12.9627 C.2     1  UNL1        0.0114
@<TRIPOS>BOND
     1     7     8    1
     2     8     9    2
     3     9    10    1
     4    10    11    2
     5    11    12    1
     6    12    13    1
     7    13    14    2
     8    14     1    1
     9     1     2   ar
    10     2     3   ar
    11     3    22    1
    12    22    23    1
    13    23    24    1
    14    24    25    1
    15    24    28    1
    16    28    29    1
    17    29    30    2
    18    30    31    1
    19    31    32    2
    20    32    33    1
    21    33    34    1
    22    34    35    2
    23    35    36    1
    24    36    37    2
    25     3     4   ar
    26     4     5   ar
    27     5     6   ar
    28     6    17    1
    29    17    18   ar
    30    18    19   ar
    31    19    20   ar
    32    20    21   ar
    33    14    15    1
    34    15    16    2
    35    16     8    1
    36    16    11    1
    37     6     1   ar
    38    21    17   ar
    39    37    29    1
    40    37    32    1
    41    25    26    1
    42    25    27    1
@<TRIPOS>MOLECULE
*****
 37 42 0 0 0
SMALL
GASTEIGER

@<TRIPOS>ATOM
      1 C          62.3492   87.5522   10.9115 C.ar    1  UNL1        0.1087
      2 C          62.8914   88.5820   11.8578 C.ar    1  UNL1        0.0477
      3 C          62.6512   90.0397   11.5980 C.ar    1  UNL1        0.1580
      4 C          61.8689   90.4676   10.3918 C.ar    1  UNL1        0.1356
      5 N          61.3266   89.4377    9.4455 N.ar    1  UNL1       -0.2403
      6 C          61.5668   87.9801    9.7053 C.ar    1  UNL1        0.0921
      7 C          62.2318   83.7683   15.4347 C.3     1  UNL1        0.0581
      8 C          62.5949   83.2638   14.0695 C.2     1  UNL1        0.1250
      9 N          62.9445   81.8485   13.7168 N.2     1  UNL1       -0.1486
     10 N          63.2379   81.7962   12.2467 N.2     1  UNL1       -0.1443
     11 C          63.0696   83.1792   11.6909 C.2     1  UNL1        0.1777
     12 C          63.2268   83.7297   10.3045 C.3     1  UNL1        0.3144
     13 N          62.9867   85.1874   10.0447 N.2     1  UNL1       -0.0529
     14 C          62.5893   86.0945   11.1713 C.2     1  UNL1        0.3724
     15 N          62.4320   85.5439   12.5577 N.2     1  UNL1       -0.0319
     16 C          62.6722   84.0863   12.8175 C.2     1  UNL1        0.2280
     17 C          61.0246   86.9502    8.7590 C.ar    1  UNL1        0.0586
     18 C          61.8372   86.0124    7.9164 C.ar    1  UNL1        0.0453
     19 C          60.8894   85.1600    7.1258 C.ar    1  UNL1        0.1798
     20 O          59.4908   85.5711    7.4798 O.2     1  UNL1       -0.4473
     21 C          59.5744   86.6775    8.4892 C.ar    1  UNL1        0.1812
     22 O          63.1934   91.0695   12.5443 O.3     1  UNL1       -0.4724
     23 C          64.4524   91.8110   12.2049 C.3     1  UNL1        0.2211
     24 C          65.4718   92.0851   13.2705 C.3     1  UNL1        0.0995
     25 N          65.1975   91.6881   14.6908 N.3     1  UNL1       -0.3190
     26 H          65.9916   91.9480   15.2759 H       1  UNL1        0.1189
     27 H          65.0545   90.6794   14.7403 H       1  UNL1        0.1189
     28 C          66.7656   92.7563   12.9159 C.3     1  UNL1        0.0472
     29 C          67.1058   93.0171   11.4784 C.2     1  UNL1       -0.0005
     30 C          67.8488   92.0874   10.5654 C.2     1  UNL1        0.0942
     31 N          67.9650   92.7492    9.2244 N.2     1  UNL1       -0.2482
     32 C          67.2937   94.0880    9.3084 C.2     1  UNL1        0.0631
     33 C          67.0973   95.1776    8.2965 C.3     1  UNL1        0.0717
     34 C          66.3699   96.4330    8.6776 C.2     1  UNL1       -0.0198
     35 C          65.8390   96.5985   10.0707 C.2     1  UNL1       -0.0042
     36 C          66.0353   95.5088   11.0826 C.2     1  UNL1        0.0006
     37 C          66.7627   94.2536   10.7015 C.2     1  UNL1        0.0114
@<TRIPOS>BOND
     1     7     8    1
     2     8     9    2
     3     9    10    1
     4    10    11    2
     5    11    12    1
     6    12    13    1
     7    13    14    2
     8    14     1    1
     9     1     2   ar
    10     2     3   ar
    11     3    22    1
    12    22    23    1
    13    23    24    1
    14    24    25    1
    15    24    28    1
    16    28    29    1
    17    29    30    2
    18    30    31    1
    19    31    32    2
    20    32    33    1
    21    33    34    1
    22    34    35    2
    23    35    36    1
    24    36    37    2
    25     3     4   ar
    26     4     5   ar
    27     5     6   ar
    28     6    17    1
    29    17    18   ar
    30    18    19   ar
    31    19    20   ar
    32    20    21   ar
    33    14    15    1
    34    15    16    2
    35    16     8    1
    36    16    11    1
    37     6     1   ar
    38    21    17   ar
    39    37    29    1
    40    37    32    1
    41    25    26    1
    42    25    27    1
