@<TRIPOS>MOLECULE
*****
 29 33 0 0 0
SMALL
GASTEIGER

@<TRIPOS>ATOM
      1 C          64.2153   91.0227   14.3925 C.ar    1  UNL1        0.1902
      2 N          64.0481   91.6483   15.7455 N.ar    1  UNL1       -0.1269
      3 N          63.6556   90.5687   16.7100 N.ar    1  UNL1       -0.1316
      4 C          63.5802   89.2758   15.9531 C.ar    1  UNL1        0.1615
      5 N          63.9261   89.5565   14.5208 N.ar    1  UNL1       -0.2940
      6 C          63.9331   88.4406   13.5184 C.3     1  UNL1        0.1302
      7 C          63.5941   87.0441   13.9484 C.3     1  UNL1        0.1186
      8 N          63.2482   86.7634   15.3807 N.am    1  UNL1       -0.2688
      9 C          62.9092   85.3670   15.8107 C.2     1  UNL1        0.2493
     10 O          62.5633   85.0863   17.2430 O.2     1  UNL1       -0.2699
     11 C          63.2412   87.8794   16.3831 C.3     1  UNL1        0.1343
     12 C          62.8953   87.5988   17.8154 C.3     1  UNL1        0.0298
     13 C          66.5051   94.3900   11.0311 C.3     1  UNL1        0.0527
     14 C          65.6561   93.2856   11.5873 C.ar    1  UNL1        0.0665
     15 C          64.7459   92.3910   10.7991 C.ar    1  UNL1        0.0517
     16 S          64.0954   91.4344   11.7541 S.2     1  UNL1       -0.0633
     17 C          64.6035   91.7378   13.1324 C.ar    1  UNL1        0.1462
     18 N          65.5681   92.8820   13.0293 N.ar    1  UNL1       -0.2395
     19 C          62.9162   84.2511   14.8083 C.ar    1  UNL1        0.0536
     20 C          62.0033   83.0747   14.9893 C.ar    1  UNL1        0.0045
     21 C          62.0103   81.9588   13.9868 C.ar    1  UNL1        0.0006
     22 C          62.9301   82.0194   12.8035 C.ar    1  UNL1        0.0060
     23 C          63.8430   83.1958   12.6226 C.ar    1  UNL1        0.0006
     24 C          63.8360   84.3116   13.6249 C.ar    1  UNL1        0.0045
     25 C          62.9371   80.9035   11.8011 C.ar    1  UNL1        0.0295
     26 C          63.2786   81.0277   10.3458 C.ar    1  UNL1        0.0070
     27 C          63.1564   79.6685    9.7233 C.ar    1  UNL1        0.0075
     28 C          62.7394   78.7041   10.7939 C.ar    1  UNL1        0.0354
     29 S          62.6038   79.4674   12.0781 S.2     1  UNL1       -0.0864
@<TRIPOS>BOND
     1    13    14    1
     2    14    15   ar
     3    15    16   ar
     4    16    17   ar
     5    17     1    1
     6     1     2   ar
     7     2     3   ar
     8     3     4   ar
     9     4     5   ar
    10     5     6    1
    11     6     7    1
    12     7     8    1
    13     8     9   am
    14     9    10    2
    15     9    19    1
    16    19    20   ar
    17    20    21   ar
    18    21    22   ar
    19    22    25    1
    20    25    26   ar
    21    26    27   ar
    22    27    28   ar
    23    28    29   ar
    24    22    23   ar
    25    23    24   ar
    26     8    11    1
    27    11    12    1
    28    17    18   ar
    29    18    14   ar
    30     5     1   ar
    31    24    19   ar
    32    11     4    1
    33    29    25   ar
@<TRIPOS>MOLECULE
*****
 29 33 0 0 0
SMALL
GASTEIGER

@<TRIPOS>ATOM
      1 C          71.5198   73.2454   14.7451 C.ar    1  UNL1        0.1902
      2 N          71.8776   73.3638   16.1969 N.ar    1  UNL1       -0.1269
      3 N          72.4157   74.7444   16.4306 N.ar    1  UNL1       -0.1316
      4 C          72.3904   75.4792   15.1231 C.ar    1  UNL1        0.1615
      5 N          71.8368   74.5527   14.0814 N.ar    1  UNL1       -0.2940
      6 C          71.6927   75.0193   12.6631 C.3     1  UNL1        0.1302
      7 C          72.1024   76.4123   12.2865 C.3     1  UNL1        0.1186
      8 N          72.6560   77.3387   13.3282 N.am    1  UNL1       -0.2688
      9 C          73.0657   78.7316   12.9516 C.2     1  UNL1        0.2493
     10 O          73.6194   79.6581   13.9934 O.2     1  UNL1       -0.2699
     11 C          72.8001   76.8721   14.7465 C.3     1  UNL1        0.1343
     12 C          73.3537   77.7985   15.7883 C.3     1  UNL1        0.0298
     13 C          68.5748   70.1357   11.6569 C.3     1  UNL1        0.0527
     14 C          69.5921   70.6032   12.6550 C.ar    1  UNL1        0.0665
     15 C          70.5330   69.7292   13.4303 C.ar    1  UNL1        0.0517
     16 S          71.3697   70.6127   14.3076 S.2     1  UNL1       -0.0633
     17 C          70.9459   72.0326   14.0745 C.ar    1  UNL1        0.1462
     18 N          69.8473   72.0267   13.0532 N.ar    1  UNL1       -0.2395
     19 C          72.9217   79.1982   11.5333 C.ar    1  UNL1        0.0536
     20 C          73.4849   78.3758   10.4124 C.ar    1  UNL1        0.0045
     21 C          73.3408   78.8424    8.9941 C.ar    1  UNL1        0.0006
     22 C          72.6336   80.1313    8.6967 C.ar    1  UNL1        0.0060
     23 C          72.0704   80.9536    9.8176 C.ar    1  UNL1        0.0006
     24 C          72.2144   80.4871   11.2359 C.ar    1  UNL1        0.0045
     25 C          72.4895   80.5978    7.2784 C.ar    1  UNL1        0.0295
     26 C          71.3227   80.3274    6.3754 C.ar    1  UNL1        0.0070
     27 C          71.5991   80.9792    5.0530 C.ar    1  UNL1        0.0075
     28 C          72.9368   81.6525    5.1387 C.ar    1  UNL1        0.0354
     29 S          73.4871   81.4168    6.5141 S.2     1  UNL1       -0.0864
@<TRIPOS>BOND
     1    13    14    1
     2    14    15   ar
     3    15    16   ar
     4    16    17   ar
     5    17     1    1
     6     1     2   ar
     7     2     3   ar
     8     3     4   ar
     9     4     5   ar
    10     5     6    1
    11     6     7    1
    12     7     8    1
    13     8     9   am
    14     9    10    2
    15     9    19    1
    16    19    20   ar
    17    20    21   ar
    18    21    22   ar
    19    22    25    1
    20    25    26   ar
    21    26    27   ar
    22    27    28   ar
    23    28    29   ar
    24    22    23   ar
    25    23    24   ar
    26     8    11    1
    27    11    12    1
    28    17    18   ar
    29    18    14   ar
    30     5     1   ar
    31    24    19   ar
    32    11     4    1
    33    29    25   ar
@<TRIPOS>MOLECULE
*****
 29 33 0 0 0
SMALL
GASTEIGER

@<TRIPOS>ATOM
      1 C          72.6755   80.9207   10.2985 C.ar    1  UNL1        0.1902
      2 N          73.2976   82.0063   11.1257 N.ar    1  UNL1       -0.1269
      3 N          73.5472   81.4572   12.4991 N.ar    1  UNL1       -0.1316
      4 C          73.0794   80.0321   12.5206 C.ar    1  UNL1        0.1615
      5 N          72.5407   79.7005   11.1605 N.ar    1  UNL1       -0.2940
      6 C          71.9969   78.3305   10.8828 C.3     1  UNL1        0.1302
      7 C          71.9919   77.2919   11.9651 C.3     1  UNL1        0.1186
      8 N          72.5306   77.6235   13.3252 N.am    1  UNL1       -0.2688
      9 C          72.5256   76.5850   14.4075 C.2     1  UNL1        0.2493
     10 O          73.0644   76.9166   15.7676 O.2     1  UNL1       -0.2699
     11 C          73.0744   78.9936   13.6029 C.3     1  UNL1        0.1343
     12 C          73.6132   79.3252   14.9630 C.3     1  UNL1        0.0298
     13 C          71.0201   79.6947    5.4367 C.3     1  UNL1        0.0527
     14 C          71.5001   80.4714    6.6267 C.ar    1  UNL1        0.0665
     15 C          71.7464   81.9504    6.6733 C.ar    1  UNL1        0.0517
     16 S          72.2167   82.2987    8.0545 S.2     1  UNL1       -0.0633
     17 C          72.2611   81.0350    8.8614 C.ar    1  UNL1        0.1462
     18 N          71.8182   79.9057    7.9790 N.ar    1  UNL1       -0.2395
     19 C          71.9819   75.2149   14.1298 C.ar    1  UNL1        0.0536
     20 C          71.1185   74.5301   15.1474 C.ar    1  UNL1        0.0045
     21 C          70.5748   73.1600   14.8696 C.ar    1  UNL1        0.0006
     22 C          70.8944   72.4747   13.5742 C.ar    1  UNL1        0.0060
     23 C          71.7577   73.1595   12.5565 C.ar    1  UNL1        0.0006
     24 C          72.3015   74.5296   12.8343 C.ar    1  UNL1        0.0045
     25 C          70.3506   71.1046   13.2964 C.ar    1  UNL1        0.0295
     26 C          69.2308   70.7747   12.3545 C.ar    1  UNL1        0.0070
     27 C          69.0194   69.2900   12.3877 C.ar    1  UNL1        0.0075
     28 C          70.0085   68.7023   13.3502 C.ar    1  UNL1        0.0354
     29 S          70.8313   69.8238   13.9118 S.2     1  UNL1       -0.0864
@<TRIPOS>BOND
     1    13    14    1
     2    14    15   ar
     3    15    16   ar
     4    16    17   ar
     5    17     1    1
     6     1     2   ar
     7     2     3   ar
     8     3     4   ar
     9     4     5   ar
    10     5     6    1
    11     6     7    1
    12     7     8    1
    13     8     9   am
    14     9    10    2
    15     9    19    1
    16    19    20   ar
    17    20    21   ar
    18    21    22   ar
    19    22    25    1
    20    25    26   ar
    21    26    27   ar
    22    27    28   ar
    23    28    29   ar
    24    22    23   ar
    25    23    24   ar
    26     8    11    1
    27    11    12    1
    28    17    18   ar
    29    18    14   ar
    30     5     1   ar
    31    24    19   ar
    32    11     4    1
    33    29    25   ar
@<TRIPOS>MOLECULE
*****
 29 33 0 0 0
SMALL
GASTEIGER

@<TRIPOS>ATOM
      1 C          61.1551   92.2185    3.2056 C.ar    1  UNL1        0.1902
      2 N          62.6507   92.2905    3.2957 N.ar    1  UNL1       -0.1269
      3 N          63.1555   92.9932    2.0704 N.ar    1  UNL1       -0.1316
      4 C          61.9720   93.3555    1.2230 C.ar    1  UNL1        0.1615
      5 N          60.7356   92.8767    1.9246 N.ar    1  UNL1       -0.2940
      6 C          59.3877   93.1020    1.3065 C.3     1  UNL1        0.1302
      7 C          59.2760   93.8060   -0.0134 C.3     1  UNL1        0.1186
      8 N          60.5123   94.2847   -0.7150 N.am    1  UNL1       -0.2688
      9 C          60.4007   94.9887   -2.0348 C.2     1  UNL1        0.2493
     10 O          61.6370   95.4675   -2.7364 O.2     1  UNL1       -0.2699
     11 C          61.8603   94.0595   -0.0968 C.3     1  UNL1        0.1343
     12 C          63.0967   94.5382   -0.7984 C.3     1  UNL1        0.0298
     13 C          59.2876   89.1325    7.0617 C.3     1  UNL1        0.0527
     14 C          59.3813   90.1789    5.9911 C.ar    1  UNL1        0.0665
     15 C          58.2807   91.1043    5.5640 C.ar    1  UNL1        0.0517
     16 S          58.8113   91.9810    4.4685 S.2     1  UNL1       -0.0633
     17 C          60.2397   91.5974    4.2186 C.ar    1  UNL1        0.1462
     18 N          60.5920   90.4837    5.1596 N.ar    1  UNL1       -0.2395
     19 C          59.0527   95.2140   -2.6530 C.ar    1  UNL1        0.0536
     20 C          58.4872   94.2046   -3.6076 C.ar    1  UNL1        0.0045
     21 C          57.1392   94.4299   -4.2258 C.ar    1  UNL1        0.0006
     22 C          56.3566   95.6645   -3.8893 C.ar    1  UNL1        0.0060
     23 C          56.9221   96.6739   -2.9346 C.ar    1  UNL1        0.0006
     24 C          58.2701   96.4486   -2.3164 C.ar    1  UNL1        0.0045
     25 C          55.0086   95.8898   -4.5075 C.ar    1  UNL1        0.0295
     26 C          53.7475   96.2333   -3.7716 C.ar    1  UNL1        0.0070
     27 C          52.6445   96.3669   -4.7794 C.ar    1  UNL1        0.0075
     28 C          53.2240   96.1060   -6.1382 C.ar    1  UNL1        0.0354
     29 S          54.6852   95.8111   -5.9701 S.2     1  UNL1       -0.0864
@<TRIPOS>BOND
     1    13    14    1
     2    14    15   ar
     3    15    16   ar
     4    16    17   ar
     5    17     1    1
     6     1     2   ar
     7     2     3   ar
     8     3     4   ar
     9     4     5   ar
    10     5     6    1
    11     6     7    1
    12     7     8    1
    13     8     9   am
    14     9    10    2
    15     9    19    1
    16    19    20   ar
    17    20    21   ar
    18    21    22   ar
    19    22    25    1
    20    25    26   ar
    21    26    27   ar
    22    27    28   ar
    23    28    29   ar
    24    22    23   ar
    25    23    24   ar
    26     8    11    1
    27    11    12    1
    28    17    18   ar
    29    18    14   ar
    30     5     1   ar
    31    24    19   ar
    32    11     4    1
    33    29    25   ar
@<TRIPOS>MOLECULE
*****
 29 33 0 0 0
SMALL
GASTEIGER

@<TRIPOS>ATOM
      1 C          61.2916   93.3221    2.1778 C.ar    1  UNL1        0.1902
      2 N          60.0704   94.0172    1.6528 N.ar    1  UNL1       -0.1269
      3 N          58.8835   93.5085    2.4160 N.ar    1  UNL1       -0.1316
      4 C          59.3711   92.4990    3.4125 C.ar    1  UNL1        0.1615
      5 N          60.8594   92.3838    3.2653 N.ar    1  UNL1       -0.2940
      6 C          61.6288   91.4394    4.1405 C.3     1  UNL1        0.1302
      7 C          60.9099   90.6101    5.1631 C.3     1  UNL1        0.1186
      8 N          59.4216   90.7252    5.3103 N.am    1  UNL1       -0.2688
      9 C          58.7027   89.8960    6.3328 C.2     1  UNL1        0.2493
     10 O          57.2144   90.0112    6.4800 O.2     1  UNL1       -0.2699
     11 C          58.6522   91.6697    4.4350 C.3     1  UNL1        0.1343
     12 C          57.1639   91.7849    4.5822 C.3     1  UNL1        0.0298
     13 C          65.6036   95.5100    0.0564 C.3     1  UNL1        0.0527
     14 C          64.6801   94.5347    0.7241 C.ar    1  UNL1        0.0665
     15 C          65.0448   93.1602    1.2013 C.ar    1  UNL1        0.0517
     16 S          63.8197   92.5386    1.8040 S.2     1  UNL1       -0.0633
     17 C          62.6981   93.5290    1.6992 C.ar    1  UNL1        0.1462
     18 N          63.2298   94.7627    1.0318 N.ar    1  UNL1       -0.2395
     19 C          59.4721   88.9516    7.2080 C.ar    1  UNL1        0.0536
     20 C          59.4890   87.4846    6.8955 C.ar    1  UNL1        0.0045
     21 C          60.2584   86.5402    7.7708 C.ar    1  UNL1        0.0006
     22 C          61.0109   87.0627    8.9585 C.ar    1  UNL1        0.0060
     23 C          60.9940   88.5297    9.2710 C.ar    1  UNL1        0.0006
     24 C          60.2246   89.4742    8.3957 C.ar    1  UNL1        0.0045
     25 C          61.7804   86.1183    9.8338 C.ar    1  UNL1        0.0295
     26 C          62.7844   85.1054    9.3693 C.ar    1  UNL1        0.0070
     27 C          63.3054   84.3821   10.5757 C.ar    1  UNL1        0.0075
     28 C          62.6233   84.9480   11.7859 C.ar    1  UNL1        0.0354
     29 S          61.6807   86.0211   11.3274 S.2     1  UNL1       -0.0864
@<TRIPOS>BOND
     1    13    14    1
     2    14    15   ar
     3    15    16   ar
     4    16    17   ar
     5    17     1    1
     6     1     2   ar
     7     2     3   ar
     8     3     4   ar
     9     4     5   ar
    10     5     6    1
    11     6     7    1
    12     7     8    1
    13     8     9   am
    14     9    10    2
    15     9    19    1
    16    19    20   ar
    17    20    21   ar
    18    21    22   ar
    19    22    25    1
    20    25    26   ar
    21    26    27   ar
    22    27    28   ar
    23    28    29   ar
    24    22    23   ar
    25    23    24   ar
    26     8    11    1
    27    11    12    1
    28    17    18   ar
    29    18    14   ar
    30     5     1   ar
    31    24    19   ar
    32    11     4    1
    33    29    25   ar
@<TRIPOS>MOLECULE
*****
 29 33 0 0 0
SMALL
GASTEIGER

@<TRIPOS>ATOM
      1 C          62.1914   95.8702   -5.0725 C.ar    1  UNL1        0.1902
      2 N          63.4438   96.5935   -5.4703 N.ar    1  UNL1       -0.1269
      3 N          64.3563   96.6291   -4.2803 N.ar    1  UNL1       -0.1316
      4 C          63.6678   95.9279   -3.1470 C.ar    1  UNL1        0.1615
      5 N          62.3298   95.4589   -3.6366 N.ar    1  UNL1       -0.2940
      6 C          61.4104   94.7178   -2.7118 C.3     1  UNL1        0.1302
      7 C          61.8289   94.4458   -1.2972 C.3     1  UNL1        0.1186
      8 N          63.1669   94.9148   -0.8076 N.am    1  UNL1       -0.2688
      9 C          63.5855   94.6429    0.6069 C.2     1  UNL1        0.2493
     10 O          64.9235   95.1119    1.0965 O.2     1  UNL1       -0.2699
     11 C          64.0864   95.6559   -1.7326 C.3     1  UNL1        0.1343
     12 C          65.4244   96.1250   -1.2430 C.3     1  UNL1        0.0298
     13 C          58.2123   93.4259   -7.5369 C.3     1  UNL1        0.0527
     14 C          59.1793   94.4813   -7.0882 C.ar    1  UNL1        0.0665
     15 C          59.1957   95.9115   -7.5403 C.ar    1  UNL1        0.0517
     16 S          60.3261   96.6058   -6.8402 S.2     1  UNL1       -0.0633
     17 C          61.0082   95.6048   -5.9555 C.ar    1  UNL1        0.1462
     18 N          60.2994   94.2917   -6.1088 N.ar    1  UNL1       -0.2395
     19 C          62.6661   93.9018    1.5317 C.ar    1  UNL1        0.0536
     20 C          61.2444   94.3515    1.6952 C.ar    1  UNL1        0.0045
     21 C          60.3250   93.6104    2.6201 C.ar    1  UNL1        0.0006
     22 C          60.8272   92.4196    3.3815 C.ar    1  UNL1        0.0060
     23 C          62.2488   91.9699    3.2181 C.ar    1  UNL1        0.0006
     24 C          63.1682   92.7109    2.2932 C.ar    1  UNL1        0.0045
     25 C          59.9077   91.6785    4.3065 C.ar    1  UNL1        0.0295
     26 C          60.2985   90.5653    5.2328 C.ar    1  UNL1        0.0070
     27 C          59.0684   90.1193    5.9662 C.ar    1  UNL1        0.0075
     28 C          57.9173   90.9568    5.4931 C.ar    1  UNL1        0.0354
     29 S          58.4361   91.9205    4.4673 S.2     1  UNL1       -0.0864
@<TRIPOS>BOND
     1    13    14    1
     2    14    15   ar
     3    15    16   ar
     4    16    17   ar
     5    17     1    1
     6     1     2   ar
     7     2     3   ar
     8     3     4   ar
     9     4     5   ar
    10     5     6    1
    11     6     7    1
    12     7     8    1
    13     8     9   am
    14     9    10    2
    15     9    19    1
    16    19    20   ar
    17    20    21   ar
    18    21    22   ar
    19    22    25    1
    20    25    26   ar
    21    26    27   ar
    22    27    28   ar
    23    28    29   ar
    24    22    23   ar
    25    23    24   ar
    26     8    11    1
    27    11    12    1
    28    17    18   ar
    29    18    14   ar
    30     5     1   ar
    31    24    19   ar
    32    11     4    1
    33    29    25   ar
@<TRIPOS>MOLECULE
*****
 29 33 0 0 0
SMALL
GASTEIGER

@<TRIPOS>ATOM
      1 C          65.9393   92.8076   13.1644 C.ar    1  UNL1        0.1902
      2 N          65.8868   93.8516   14.2401 N.ar    1  UNL1       -0.1269
      3 N          65.2816   93.2275   15.4625 N.ar    1  UNL1       -0.1316
      4 C          64.9601   91.7978   15.1422 C.ar    1  UNL1        0.1615
      5 N          65.3666   91.5383   13.7219 N.ar    1  UNL1       -0.2940
      6 C          65.1627   90.1797   13.1197 C.3     1  UNL1        0.1302
      7 C          64.5523   89.0805   13.9379 C.3     1  UNL1        0.1186
      8 N          64.1458   89.3401   15.3583 N.am    1  UNL1       -0.2688
      9 C          63.5354   88.2410   16.1765 C.2     1  UNL1        0.2493
     10 O          63.1290   88.5005   17.5968 O.2     1  UNL1       -0.2699
     11 C          64.3497   90.6987   15.9604 C.3     1  UNL1        0.1343
     12 C          63.9433   90.9583   17.3808 C.3     1  UNL1        0.0298
     13 C          68.8469   92.3011    8.7860 C.3     1  UNL1        0.0527
     14 C          67.8077   92.7664    9.7625 C.ar    1  UNL1        0.0665
     15 C          66.7716   93.8217    9.5114 C.ar    1  UNL1        0.0517
     16 S          65.9456   93.9656   10.7552 S.2     1  UNL1       -0.0633
     17 C          66.4712   92.9992   11.7750 C.ar    1  UNL1        0.1462
     18 N          67.6220   92.2581   11.1615 N.ar    1  UNL1       -0.2395
     19 C          63.3315   86.8824   15.5743 C.ar    1  UNL1        0.0536
     20 C          62.5000   85.8610   16.2921 C.ar    1  UNL1        0.0045
     21 C          62.2961   84.5024   15.6899 C.ar    1  UNL1        0.0006
     22 C          62.9237   84.1652   14.3699 C.ar    1  UNL1        0.0060
     23 C          63.7553   85.1867   13.6521 C.ar    1  UNL1        0.0006
     24 C          63.9592   86.5452   14.2543 C.ar    1  UNL1        0.0045
     25 C          62.7198   82.8066   13.7676 C.ar    1  UNL1        0.0295
     26 C          61.9018   81.6953   14.3556 C.ar    1  UNL1        0.0070
     27 C          61.9746   80.5227   13.4230 C.ar    1  UNL1        0.0075
     28 C          62.8377   80.9093   12.2587 C.ar    1  UNL1        0.0354
     29 S          63.2983   82.3209   12.4717 S.2     1  UNL1       -0.0864
@<TRIPOS>BOND
     1    13    14    1
     2    14    15   ar
     3    15    16   ar
     4    16    17   ar
     5    17     1    1
     6     1     2   ar
     7     2     3   ar
     8     3     4   ar
     9     4     5   ar
    10     5     6    1
    11     6     7    1
    12     7     8    1
    13     8     9   am
    14     9    10    2
    15     9    19    1
    16    19    20   ar
    17    20    21   ar
    18    21    22   ar
    19    22    25    1
    20    25    26   ar
    21    26    27   ar
    22    27    28   ar
    23    28    29   ar
    24    22    23   ar
    25    23    24   ar
    26     8    11    1
    27    11    12    1
    28    17    18   ar
    29    18    14   ar
    30     5     1   ar
    31    24    19   ar
    32    11     4    1
    33    29    25   ar
@<TRIPOS>MOLECULE
*****
 29 33 0 0 0
SMALL
GASTEIGER

@<TRIPOS>ATOM
      1 C          61.5121   92.4383    2.7552 C.ar    1  UNL1        0.1902
      2 N          62.9867   92.4271    3.0297 N.ar    1  UNL1       -0.1269
      3 N          63.6865   92.9855    1.8262 N.ar    1  UNL1       -0.1316
      4 C          62.6443   93.3419    0.8079 C.ar    1  UNL1        0.1615
      5 N          61.3005   93.0037    1.3821 N.ar    1  UNL1       -0.2940
      6 C          60.0577   93.2543    0.5804 C.3     1  UNL1        0.1302
      7 C          60.1588   93.8431   -0.7955 C.3     1  UNL1        0.1186
      8 N          61.5026   94.1813   -1.3697 N.am    1  UNL1       -0.2688
      9 C          61.6037   94.7701   -2.7456 C.2     1  UNL1        0.2493
     10 O          62.9476   95.1083   -3.3198 O.2     1  UNL1       -0.2699
     11 C          62.7454   93.9307   -0.5680 C.3     1  UNL1        0.1343
     12 C          64.0893   94.2689   -1.1422 C.3     1  UNL1        0.0298
     13 C          56.8018   91.6803    5.0178 C.3     1  UNL1        0.0527
     14 C          58.2726   91.6186    4.7298 C.ar    1  UNL1        0.0665
     15 C          59.2960   90.8646    5.5262 C.ar    1  UNL1        0.0517
     16 S          60.6342   91.0800    4.8834 S.2     1  UNL1       -0.0633
     17 C          60.4377   91.9670    3.6898 C.ar    1  UNL1        0.1462
     18 N          58.9782   92.2998    3.5949 N.ar    1  UNL1       -0.2395
     19 C          60.3610   95.0207   -3.5473 C.ar    1  UNL1        0.0536
     20 C          59.4969   93.8700   -3.9708 C.ar    1  UNL1        0.0045
     21 C          58.2541   94.1207   -4.7725 C.ar    1  UNL1        0.0006
     22 C          57.8754   95.5220   -5.1507 C.ar    1  UNL1        0.0060
     23 C          58.7395   96.6726   -4.7272 C.ar    1  UNL1        0.0006
     24 C          59.9823   96.4220   -3.9255 C.ar    1  UNL1        0.0045
     25 C          56.6326   95.7726   -5.9524 C.ar    1  UNL1        0.0295
     26 C          56.4453   96.8556   -6.9731 C.ar    1  UNL1        0.0070
     27 C          55.0559   96.7366   -7.5257 C.ar    1  UNL1        0.0075
     28 C          54.3844   95.5799   -6.8464 C.ar    1  UNL1        0.0354
     29 S          55.3590   94.9841   -5.8740 S.2     1  UNL1       -0.0864
@<TRIPOS>BOND
     1    13    14    1
     2    14    15   ar
     3    15    16   ar
     4    16    17   ar
     5    17     1    1
     6     1     2   ar
     7     2     3   ar
     8     3     4   ar
     9     4     5   ar
    10     5     6    1
    11     6     7    1
    12     7     8    1
    13     8     9   am
    14     9    10    2
    15     9    19    1
    16    19    20   ar
    17    20    21   ar
    18    21    22   ar
    19    22    25    1
    20    25    26   ar
    21    26    27   ar
    22    27    28   ar
    23    28    29   ar
    24    22    23   ar
    25    23    24   ar
    26     8    11    1
    27    11    12    1
    28    17    18   ar
    29    18    14   ar
    30     5     1   ar
    31    24    19   ar
    32    11     4    1
    33    29    25   ar
@<TRIPOS>MOLECULE
*****
 29 33 0 0 0
SMALL
GASTEIGER

@<TRIPOS>ATOM
      1 C          62.2584   93.9652    0.8685 C.ar    1  UNL1        0.1902
      2 N          63.1669   95.1559    0.7863 N.ar    1  UNL1       -0.1269
      3 N          62.8718   95.8764   -0.4958 N.ar    1  UNL1       -0.1316
      4 C          61.7809   95.1310   -1.2059 C.ar    1  UNL1        0.1615
      5 N          61.4017   93.9498   -0.3628 N.ar    1  UNL1       -0.2940
      6 C          60.3255   93.0128   -0.8251 C.3     1  UNL1        0.1302
      7 C          59.6284   93.2570   -2.1306 C.3     1  UNL1        0.1186
      8 N          60.0075   94.4383   -2.9738 N.am    1  UNL1       -0.2688
      9 C          59.3104   94.6825   -4.2793 C.2     1  UNL1        0.2493
     10 O          59.6895   95.8638   -5.1225 O.2     1  UNL1       -0.2699
     11 C          61.0837   95.3753   -2.5114 C.3     1  UNL1        0.1343
     12 C          61.4629   96.5565   -3.3546 C.3     1  UNL1        0.0298
     13 C          60.5848   91.0777    4.9602 C.3     1  UNL1        0.0527
     14 C          61.4449   91.6381    3.8666 C.ar    1  UNL1        0.0665
     15 C          62.8474   91.2153    3.5438 C.ar    1  UNL1        0.0517
     16 S          63.3229   92.0356    2.3813 S.2     1  UNL1       -0.0633
     17 C          62.2142   92.9653    1.9858 C.ar    1  UNL1        0.1462
     18 N          61.0535   92.7197    2.9037 N.ar    1  UNL1       -0.2395
     19 C          58.2341   93.7455   -4.7416 C.ar    1  UNL1        0.0536
     20 C          58.4010   92.9862   -6.0244 C.ar    1  UNL1        0.0045
     21 C          57.3247   92.0492   -6.4867 C.ar    1  UNL1        0.0006
     22 C          56.0816   91.8715   -5.6662 C.ar    1  UNL1        0.0060
     23 C          55.9148   92.6309   -4.3834 C.ar    1  UNL1        0.0006
     24 C          56.9910   93.5679   -3.9211 C.ar    1  UNL1        0.0045
     25 C          55.0053   90.9345   -6.1285 C.ar    1  UNL1        0.0295
     26 C          54.3366   89.8807   -5.2965 C.ar    1  UNL1        0.0070
     27 C          53.3268   89.1818   -6.1577 C.ar    1  UNL1        0.0075
     28 C          53.3714   89.8036   -7.5221 C.ar    1  UNL1        0.0354
     29 S          54.4089   90.8869   -7.5040 S.2     1  UNL1       -0.0864
@<TRIPOS>BOND
     1    13    14    1
     2    14    15   ar
     3    15    16   ar
     4    16    17   ar
     5    17     1    1
     6     1     2   ar
     7     2     3   ar
     8     3     4   ar
     9     4     5   ar
    10     5     6    1
    11     6     7    1
    12     7     8    1
    13     8     9   am
    14     9    10    2
    15     9    19    1
    16    19    20   ar
    17    20    21   ar
    18    21    22   ar
    19    22    25    1
    20    25    26   ar
    21    26    27   ar
    22    27    28   ar
    23    28    29   ar
    24    22    23   ar
    25    23    24   ar
    26     8    11    1
    27    11    12    1
    28    17    18   ar
    29    18    14   ar
    30     5     1   ar
    31    24    19   ar
    32    11     4    1
    33    29    25   ar
