@<TRIPOS>MOLECULE
*****
 30 34 0 0 0
SMALL
GASTEIGER

@<TRIPOS>ATOM
      1 C          64.1357   88.5368   13.9234 C.ar    1  UNL1        0.2212
      2 N          63.3249   88.2693   12.6902 N.ar    1  UNL1       -0.1948
      3 C          63.0776   89.3701   11.7017 C.ar    1  UNL1        0.1667
      4 C          63.6413   90.7385   11.9465 C.ar    1  UNL1        0.1117
      5 C          63.2345   91.6189   10.8023 C.ar    1  UNL1        0.0968
      6 N          62.4195   90.7947    9.8503 N.ar    1  UNL1       -0.2924
      7 N          62.3225   89.4049   10.4061 N.ar    1  UNL1       -0.2587
      8 C          64.4521   91.0060   13.1798 C.ar    1  UNL1        0.2860
      9 O          65.0157   92.3744   13.4247 O.2     1  UNL1       -0.2650
     10 N          64.6993   89.9051   14.1683 N.ar    1  UNL1       -0.1749
     11 H          62.0185   91.1105    9.0084 H       1  UNL1        0.1871
     12 C          61.5977   88.2522    9.7768 C.3     1  UNL1        0.1046
     13 C          60.1953   88.2769    9.2451 C.3     1  UNL1        0.0243
     14 C          59.8790   86.9124    8.7085 C.3     1  UNL1        0.0021
     15 C          61.0858   86.0443    8.9085 C.3     1  UNL1        0.0021
     16 C          62.1480   86.8724    9.5688 C.3     1  UNL1        0.0243
     17 N          64.3829   87.4359   14.9119 N.pl3   1  UNL1       -0.2968
     18 H          65.1570   86.8382   14.7996 H       1  UNL1        0.1500
     19 C          63.0781   88.4150   16.9340 C.3     1  UNL1        0.0312
     20 C          63.4504   87.2457   16.0713 C.3     1  UNL1        0.1490
     21 C          62.8902   85.8863   16.3682 C.2     1  UNL1        0.2435
     22 O          62.3397   85.5831   17.7302 O.2     1  UNL1       -0.2731
     23 N          62.8804   84.8301   15.3032 N.am    1  UNL1       -0.2781
     24 C          62.4201   83.4045   15.2275 C.3     1  UNL1        0.0952
     25 C          62.8667   83.3364   13.7971 C.3     1  UNL1        0.0419
     26 C          62.4063   81.9108   13.7212 C.3     1  UNL1        0.0387
     27 C          62.8529   81.8426   12.2909 C.3     1  UNL1        0.1612
     28 F          62.8432   80.7864   11.2259 F       1  UNL1       -0.2373
     29 C          63.3132   83.2682   12.3667 C.3     1  UNL1        0.0387
     30 C          63.3270   84.7620   13.8729 C.3     1  UNL1        0.0952
@<TRIPOS>BOND
     1    20    19    1
     2    20    17    1
     3    17     1    1
     4     1     2   ar
     5     2     3   ar
     6     3     4    1
     7     4     5   ar
     8     5     6   ar
     9     6     7   ar
    10     7    12    1
    11    12    13    1
    12    13    14    1
    13    14    15    1
    14    15    16    1
    15     4     8   ar
    16     8     9    2
    17     8    10   ar
    18    20    21    1
    19    21    22    2
    20    21    23   am
    21    23    24    1
    22    24    25    1
    23    25    26    1
    24    26    27    1
    25    27    28    1
    26    27    29    1
    27    25    30    1
    28    10     1   ar
    29    30    23    1
    30     7     3   ar
    31    16    12    1
    32    29    25    1
    33    17    18    1
    34     6    11    1
@<TRIPOS>MOLECULE
*****
 30 34 0 0 0
SMALL
GASTEIGER

@<TRIPOS>ATOM
      1 C          62.2691   90.6830   11.1612 C.ar    1  UNL1        0.2212
      2 N          63.5761   91.3677   10.8911 N.ar    1  UNL1       -0.1948
      3 C          64.5911   91.5054   11.9869 C.ar    1  UNL1        0.1667
      4 C          64.2990   90.9585   13.3528 C.ar    1  UNL1        0.1117
      5 C          65.4837   91.2411   14.2284 C.ar    1  UNL1        0.0968
      6 N          66.5080   91.9626   13.4036 N.ar    1  UNL1       -0.2924
      7 N          65.9563   92.1260   12.0183 N.ar    1  UNL1       -0.2587
      8 C          62.9920   90.2738   13.6229 C.ar    1  UNL1        0.2860
      9 O          62.6999   89.7269   14.9887 O.2     1  UNL1       -0.2650
     10 N          61.9770   90.1361   12.5269 N.ar    1  UNL1       -0.1749
     11 H          67.3879   92.2742   13.7165 H       1  UNL1        0.1871
     12 C          66.6484   92.7929   10.8667 C.3     1  UNL1        0.1046
     13 C          67.7649   92.2103   10.0519 C.3     1  UNL1        0.0243
     14 C          68.1520   93.2168    9.0093 C.3     1  UNL1        0.0021
     15 C          67.2747   94.4215    9.1797 C.3     1  UNL1        0.0021
     16 C          66.3454   94.1595   10.3276 C.3     1  UNL1        0.0243
     17 N          61.2541   90.5453   10.0652 N.pl3   1  UNL1       -0.2968
     18 H          60.9941   91.3319    9.5334 H       1  UNL1        0.1500
     19 C          60.0473   88.9281    8.4287 C.3     1  UNL1        0.0312
     20 C          60.6354   89.2090    9.7798 C.3     1  UNL1        0.1490
     21 C          60.6046   88.1536   10.8452 C.2     1  UNL1        0.2435
     22 O          59.7599   88.3482   12.0694 O.2     1  UNL1       -0.2731
     23 N          61.4186   86.9037   10.6866 N.am    1  UNL1       -0.2781
     24 C          61.6367   85.6685   11.5091 C.3     1  UNL1        0.0952
     25 C          62.5696   85.1361   10.4621 C.3     1  UNL1        0.0419
     26 C          62.7878   83.9008   11.2847 C.3     1  UNL1        0.0387
     27 C          63.7207   83.3683   10.2377 C.3     1  UNL1        0.1612
     28 F          64.5346   82.1185   10.0790 F       1  UNL1       -0.2373
     29 C          63.5026   84.6035    9.4152 C.3     1  UNL1        0.0387
     30 C          62.3515   86.3713    9.6396 C.3     1  UNL1        0.0952
@<TRIPOS>BOND
     1    20    19    1
     2    20    17    1
     3    17     1    1
     4     1     2   ar
     5     2     3   ar
     6     3     4    1
     7     4     5   ar
     8     5     6   ar
     9     6     7   ar
    10     7    12    1
    11    12    13    1
    12    13    14    1
    13    14    15    1
    14    15    16    1
    15     4     8   ar
    16     8     9    2
    17     8    10   ar
    18    20    21    1
    19    21    22    2
    20    21    23   am
    21    23    24    1
    22    24    25    1
    23    25    26    1
    24    26    27    1
    25    27    28    1
    26    27    29    1
    27    25    30    1
    28    10     1   ar
    29    30    23    1
    30     7     3   ar
    31    16    12    1
    32    29    25    1
    33    17    18    1
    34     6    11    1
@<TRIPOS>MOLECULE
*****
 30 34 0 0 0
SMALL
GASTEIGER

@<TRIPOS>ATOM
      1 C          62.7388   90.8130   10.6994 C.ar    1  UNL1        0.2212
      2 N          63.0316   90.2233   12.0472 N.ar    1  UNL1       -0.1948
      3 C          64.1918   90.7302   12.8516 C.ar    1  UNL1        0.1667
      4 C          65.0591   91.8268   12.3082 C.ar    1  UNL1        0.1117
      5 C          66.1250   92.1202   13.3220 C.ar    1  UNL1        0.0968
      6 N          65.9164   91.2049   14.4920 N.ar    1  UNL1       -0.2924
      7 N          64.7216   90.3459   14.2012 N.ar    1  UNL1       -0.2587
      8 C          64.7663   92.4165   10.9605 C.ar    1  UNL1        0.2860
      9 O          65.6336   93.5131   10.4170 O.2     1  UNL1       -0.2650
     10 N          63.6061   91.9095   10.1561 N.ar    1  UNL1       -0.1749
     11 H          66.4670   91.1735   15.3075 H       1  UNL1        0.1871
     12 C          64.1560   89.2882   15.1020 C.3     1  UNL1        0.1046
     13 C          63.3104   89.5256   16.3180 C.3     1  UNL1        0.0243
     14 C          62.9685   88.1915   16.9124 C.3     1  UNL1        0.0021
     15 C          63.6027   87.1296   16.0639 C.3     1  UNL1        0.0021
     16 C          64.3367   87.8074   14.9450 C.3     1  UNL1        0.0243
     17 N          61.5785   90.3061    9.8950 N.pl3   1  UNL1       -0.2968
     18 H          61.3428   90.7403    9.0435 H       1  UNL1        0.1500
     19 C          59.8074   89.3168   11.5180 C.3     1  UNL1        0.0312
     20 C          60.7776   89.1376   10.3882 C.3     1  UNL1        0.1490
     21 C          60.9469   87.7900    9.7515 C.2     1  UNL1        0.2435
     22 O          60.3867   87.5308    8.3844 O.2     1  UNL1       -0.2731
     23 N          61.6762   86.7016   10.4819 N.am    1  UNL1       -0.2781
     24 C          62.0323   85.2761   10.1804 C.3     1  UNL1        0.0952
     25 C          62.7077   85.1626   11.5149 C.3     1  UNL1        0.0419
     26 C          63.0638   83.7370   11.2134 C.3     1  UNL1        0.0387
     27 C          63.7391   83.6233   12.5479 C.3     1  UNL1        0.1612
     28 F          64.4685   82.5351   13.2784 F       1  UNL1       -0.2373
     29 C          63.3830   85.0489   12.8495 C.3     1  UNL1        0.0387
     30 C          62.3515   86.5881   11.8165 C.3     1  UNL1        0.0952
@<TRIPOS>BOND
     1    20    19    1
     2    20    17    1
     3    17     1    1
     4     1     2   ar
     5     2     3   ar
     6     3     4    1
     7     4     5   ar
     8     5     6   ar
     9     6     7   ar
    10     7    12    1
    11    12    13    1
    12    13    14    1
    13    14    15    1
    14    15    16    1
    15     4     8   ar
    16     8     9    2
    17     8    10   ar
    18    20    21    1
    19    21    22    2
    20    21    23   am
    21    23    24    1
    22    24    25    1
    23    25    26    1
    24    26    27    1
    25    27    28    1
    26    27    29    1
    27    25    30    1
    28    10     1   ar
    29    30    23    1
    30     7     3   ar
    31    16    12    1
    32    29    25    1
    33    17    18    1
    34     6    11    1
@<TRIPOS>MOLECULE
*****
 30 34 0 0 0
SMALL
GASTEIGER

@<TRIPOS>ATOM
      1 C          62.9385   90.8581   12.4007 C.ar    1  UNL1        0.2212
      2 N          64.1747   91.4586   11.7997 N.ar    1  UNL1       -0.1948
      3 C          65.3444   91.7997   12.6745 C.ar    1  UNL1        0.1667
      4 C          65.2780   91.5403   14.1504 C.ar    1  UNL1        0.1117
      5 C          66.5786   91.9771   14.7568 C.ar    1  UNL1        0.0968
      6 N          67.4488   92.5065   13.6557 N.ar    1  UNL1       -0.2924
      7 N          66.6860   92.3969   12.3687 N.ar    1  UNL1       -0.2587
      8 C          64.0419   90.9398   14.7515 C.ar    1  UNL1        0.2860
      9 O          63.9754   90.6803   16.2274 O.2     1  UNL1       -0.2650
     10 N          62.8721   90.5987   13.8766 N.ar    1  UNL1       -0.1749
     11 H          68.3604   92.8633   13.7594 H       1  UNL1        0.1871
     12 C          67.1785   92.8116   11.0139 C.3     1  UNL1        0.1046
     13 C          68.1234   92.0369   10.1440 C.3     1  UNL1        0.0243
     14 C          68.3413   92.8204    8.8836 C.3     1  UNL1        0.0021
     15 C          67.5311   94.0795    8.9746 C.3     1  UNL1        0.0021
     16 C          66.8124   94.0740   10.2911 C.3     1  UNL1        0.0243
     17 N          61.7688   90.5171   11.5258 N.pl3   1  UNL1       -0.2968
     18 H          61.3646   91.2081   10.9529 H       1  UNL1        0.1500
     19 C          59.7463   88.8993   11.7313 C.3     1  UNL1        0.0312
     20 C          61.2149   89.1231   11.5240 C.3     1  UNL1        0.1490
     21 C          62.1297   87.9528   11.3148 C.2     1  UNL1        0.2435
     22 O          63.1846   87.6342   12.3325 O.2     1  UNL1       -0.2731
     23 N          61.9896   87.1011   10.0880 N.am    1  UNL1       -0.2781
     24 C          62.6946   85.8911    9.5507 C.3     1  UNL1        0.0952
     25 C          61.7914   85.8968    8.3531 C.3     1  UNL1        0.0419
     26 C          62.4964   84.6867    7.8157 C.3     1  UNL1        0.0387
     27 C          61.5933   84.6923    6.6181 C.3     1  UNL1        0.1612
     28 F          61.4531   83.8407    5.3913 F       1  UNL1       -0.2373
     29 C          60.8882   85.9023    7.1554 C.3     1  UNL1        0.0387
     30 C          61.0864   87.1068    8.8904 C.3     1  UNL1        0.0952
@<TRIPOS>BOND
     1    20    19    1
     2    20    17    1
     3    17     1    1
     4     1     2   ar
     5     2     3   ar
     6     3     4    1
     7     4     5   ar
     8     5     6   ar
     9     6     7   ar
    10     7    12    1
    11    12    13    1
    12    13    14    1
    13    14    15    1
    14    15    16    1
    15     4     8   ar
    16     8     9    2
    17     8    10   ar
    18    20    21    1
    19    21    22    2
    20    21    23   am
    21    23    24    1
    22    24    25    1
    23    25    26    1
    24    26    27    1
    25    27    28    1
    26    27    29    1
    27    25    30    1
    28    10     1   ar
    29    30    23    1
    30     7     3   ar
    31    16    12    1
    32    29    25    1
    33    17    18    1
    34     6    11    1
@<TRIPOS>MOLECULE
*****
 30 34 0 0 0
SMALL
GASTEIGER

@<TRIPOS>ATOM
      1 C          61.2034   89.6266   10.6511 C.ar    1  UNL1        0.2212
      2 N          60.5584   89.8580    9.3168 N.ar    1  UNL1       -0.1948
      3 C          60.0904   88.6918    8.4977 C.ar    1  UNL1        0.1667
      4 C          60.2675   87.2942    9.0128 C.ar    1  UNL1        0.1117
      5 C          59.7112   86.3490    7.9896 C.ar    1  UNL1        0.0968
      6 N          59.1902   87.1625    6.8421 N.ar    1  UNL1       -0.2924
      7 N          59.4246   88.6104    7.1560 N.ar    1  UNL1       -0.2587
      8 C          60.9126   87.0628   10.3471 C.ar    1  UNL1        0.2860
      9 O          61.0897   85.6652   10.8624 O.2     1  UNL1       -0.2650
     10 N          61.3805   88.2291   11.1663 N.ar    1  UNL1       -0.1749
     11 H          58.7684   86.8082    6.0260 H       1  UNL1        0.1871
     12 C          59.0576   89.7728    6.2819 C.3     1  UNL1        0.1046
     13 C          57.6660   90.2456    5.9819 C.3     1  UNL1        0.0243
     14 C          57.7661   91.4314    5.0688 C.3     1  UNL1        0.0021
     15 C          59.2195   91.6916    4.8045 C.3     1  UNL1        0.0021
     16 C          60.0177   90.6665    5.5542 C.3     1  UNL1        0.0243
     17 N          61.6713   90.7929   11.4703 N.pl3   1  UNL1       -0.2968
     18 H          61.0195   91.4443   11.8167 H       1  UNL1        0.1500
     19 C          64.0390   91.5583   10.7233 C.3     1  UNL1        0.0312
     20 C          63.1325   90.9666   11.7616 C.3     1  UNL1        0.1490
     21 C          63.6871   90.5487   13.0912 C.2     1  UNL1        0.2435
     22 O          63.1462   89.3309   13.7801 O.2     1  UNL1       -0.2731
     23 N          64.7825   91.3484   13.7319 N.am    1  UNL1       -0.2781
     24 C          65.5627   91.2460   15.0089 C.3     1  UNL1        0.0952
     25 C          66.3317   92.4794   14.6378 C.3     1  UNL1        0.0419
     26 C          67.1119   92.3771   15.9149 C.3     1  UNL1        0.0387
     27 C          67.8809   93.6104   15.5439 C.3     1  UNL1        0.1612
     28 F          68.9763   94.4101   16.1845 F       1  UNL1       -0.2373
     29 C          67.1007   93.7127   14.2669 C.3     1  UNL1        0.0387
     30 C          65.5515   92.5817   13.3608 C.3     1  UNL1        0.0952
@<TRIPOS>BOND
     1    20    19    1
     2    20    17    1
     3    17     1    1
     4     1     2   ar
     5     2     3   ar
     6     3     4    1
     7     4     5   ar
     8     5     6   ar
     9     6     7   ar
    10     7    12    1
    11    12    13    1
    12    13    14    1
    13    14    15    1
    14    15    16    1
    15     4     8   ar
    16     8     9    2
    17     8    10   ar
    18    20    21    1
    19    21    22    2
    20    21    23   am
    21    23    24    1
    22    24    25    1
    23    25    26    1
    24    26    27    1
    25    27    28    1
    26    27    29    1
    27    25    30    1
    28    10     1   ar
    29    30    23    1
    30     7     3   ar
    31    16    12    1
    32    29    25    1
    33    17    18    1
    34     6    11    1
@<TRIPOS>MOLECULE
*****
 30 34 0 0 0
SMALL
GASTEIGER

@<TRIPOS>ATOM
      1 C          63.4526   88.9290   13.1282 C.ar    1  UNL1        0.2212
      2 N          63.4156   87.5567   12.5236 N.ar    1  UNL1       -0.1948
      3 C          62.3548   87.2065   11.5226 C.ar    1  UNL1        0.1667
      4 C          61.3310   88.2285   11.1261 C.ar    1  UNL1        0.1117
      5 C          60.4118   87.5986   10.1220 C.ar    1  UNL1        0.0968
      6 N          60.8676   86.1872    9.8979 N.ar    1  UNL1       -0.2924
      7 N          62.0684   85.9448   10.7635 N.ar    1  UNL1       -0.2587
      8 C          61.3679   89.6008   11.7307 C.ar    1  UNL1        0.2860
      9 O          60.3441   90.6229   11.3343 O.2     1  UNL1       -0.2650
     10 N          62.4288   89.9510   12.7317 N.ar    1  UNL1       -0.1749
     11 H          60.4516   85.5345    9.2895 H       1  UNL1        0.1871
     12 C          62.8462   84.6655   10.8541 C.3     1  UNL1        0.1046
     13 C          63.5567   83.9835    9.7226 C.3     1  UNL1        0.0243
     14 C          64.1997   82.7400   10.2614 C.3     1  UNL1        0.0021
     15 C          63.8867   82.6534   11.7258 C.3     1  UNL1        0.0021
     16 C          63.0502   83.8434   12.0921 C.3     1  UNL1        0.0243
     17 N          64.5135   89.2792   14.1292 N.pl3   1  UNL1       -0.2968
     18 H          65.3708   88.7952   14.1276 H       1  UNL1        0.1500
     19 C          63.2164   90.1903   16.1877 C.3     1  UNL1        0.0312
     20 C          64.2680   90.3667   15.1327 C.3     1  UNL1        0.1490
     21 C          65.0741   91.6307   15.0812 C.2     1  UNL1        0.2435
     22 O          65.5484   92.2699   16.3526 O.2     1  UNL1       -0.2731
     23 N          65.4058   92.2555   13.7585 N.am    1  UNL1       -0.2781
     24 C          66.1630   93.4742   13.3212 C.3     1  UNL1        0.0952
     25 C          65.8748   93.1389   11.8879 C.3     1  UNL1        0.0419
     26 C          66.6321   94.3577   11.4505 C.3     1  UNL1        0.0387
     27 C          66.3439   94.0225   10.0172 C.3     1  UNL1        0.1612
     28 F          66.6755   94.6472    8.6944 F       1  UNL1       -0.2373
     29 C          65.5866   92.8038   10.4544 C.3     1  UNL1        0.0387
     30 C          65.1175   91.9202   12.3251 C.3     1  UNL1        0.0952
@<TRIPOS>BOND
     1    20    19    1
     2    20    17    1
     3    17     1    1
     4     1     2   ar
     5     2     3   ar
     6     3     4    1
     7     4     5   ar
     8     5     6   ar
     9     6     7   ar
    10     7    12    1
    11    12    13    1
    12    13    14    1
    13    14    15    1
    14    15    16    1
    15     4     8   ar
    16     8     9    2
    17     8    10   ar
    18    20    21    1
    19    21    22    2
    20    21    23   am
    21    23    24    1
    22    24    25    1
    23    25    26    1
    24    26    27    1
    25    27    28    1
    26    27    29    1
    27    25    30    1
    28    10     1   ar
    29    30    23    1
    30     7     3   ar
    31    16    12    1
    32    29    25    1
    33    17    18    1
    34     6    11    1
@<TRIPOS>MOLECULE
*****
 30 34 0 0 0
SMALL
GASTEIGER

@<TRIPOS>ATOM
      1 C          63.5441   90.7969   13.9654 C.ar    1  UNL1        0.2212
      2 N          64.6455   91.3176   13.0902 N.ar    1  UNL1       -0.1948
      3 C          65.7722   92.1047   13.6911 C.ar    1  UNL1        0.1667
      4 C          65.7977   92.3709   15.1670 C.ar    1  UNL1        0.1117
      5 C          67.0289   93.1713   15.4725 C.ar    1  UNL1        0.0968
      6 N          67.7645   93.3997   14.1854 N.ar    1  UNL1       -0.2924
      7 N          66.9878   92.7405   13.0843 N.ar    1  UNL1       -0.2587
      8 C          64.6964   91.8502   16.0422 C.ar    1  UNL1        0.2860
      9 O          64.7217   92.1164   17.5182 O.2     1  UNL1       -0.2650
     10 N          63.5696   91.0631   15.4413 N.ar    1  UNL1       -0.1749
     11 H          68.6088   93.8953   14.0814 H       1  UNL1        0.1871
     12 C          67.3612   92.7206   11.6317 C.3     1  UNL1        0.1046
     13 C          66.8414   93.6497   10.5749 C.3     1  UNL1        0.0243
     14 C          67.4789   93.2713    9.2709 C.3     1  UNL1        0.0021
     15 C          68.3926   92.1085    9.5217 C.3     1  UNL1        0.0021
     16 C          68.3198   91.7681   10.9807 C.3     1  UNL1        0.0243
     17 N          62.4174   90.0098   13.3645 N.pl3   1  UNL1       -0.2968
     18 H          61.8915   89.3956   13.9262 H       1  UNL1        0.1500
     19 C          63.0385   90.8840   10.9981 C.3     1  UNL1        0.0312
     20 C          62.0918   90.1587   11.9079 C.3     1  UNL1        0.1490
     21 C          60.8196   89.5823   11.3608 C.2     1  UNL1        0.2435
     22 O          59.4953   90.0961   11.8429 O.2     1  UNL1       -0.2731
     23 N          60.8715   88.4922   10.3318 N.am    1  UNL1       -0.2781
     24 C          59.8482   87.6959    9.5777 C.3     1  UNL1        0.0952
     25 C          60.9450   86.9506    8.8766 C.3     1  UNL1        0.0419
     26 C          59.9217   86.1542    8.1225 C.3     1  UNL1        0.0387
     27 C          61.0185   85.4089    7.4213 C.3     1  UNL1        0.1612
     28 F          61.0705   84.3188    6.3923 F       1  UNL1       -0.2373
     29 C          62.0417   86.2052    8.1754 C.3     1  UNL1        0.0387
     30 C          61.9683   87.7469    9.6307 C.3     1  UNL1        0.0952
@<TRIPOS>BOND
     1    20    19    1
     2    20    17    1
     3    17     1    1
     4     1     2   ar
     5     2     3   ar
     6     3     4    1
     7     4     5   ar
     8     5     6   ar
     9     6     7   ar
    10     7    12    1
    11    12    13    1
    12    13    14    1
    13    14    15    1
    14    15    16    1
    15     4     8   ar
    16     8     9    2
    17     8    10   ar
    18    20    21    1
    19    21    22    2
    20    21    23   am
    21    23    24    1
    22    24    25    1
    23    25    26    1
    24    26    27    1
    25    27    28    1
    26    27    29    1
    27    25    30    1
    28    10     1   ar
    29    30    23    1
    30     7     3   ar
    31    16    12    1
    32    29    25    1
    33    17    18    1
    34     6    11    1
@<TRIPOS>MOLECULE
*****
 30 34 0 0 0
SMALL
GASTEIGER

@<TRIPOS>ATOM
      1 C          61.2297   89.4654   10.8338 C.ar    1  UNL1        0.2212
      2 N          61.7855   88.0749   10.9212 N.ar    1  UNL1       -0.1948
      3 C          61.4954   87.0817    9.8353 C.ar    1  UNL1        0.1667
      4 C          60.6495   87.4790    8.6619 C.ar    1  UNL1        0.1117
      5 C          60.5339   86.2929    7.7510 C.ar    1  UNL1        0.0968
      6 N          61.3084   85.1625    8.3614 N.ar    1  UNL1       -0.2924
      7 N          61.9026   85.6501    9.6495 N.ar    1  UNL1       -0.2587
      8 C          60.0937   88.8694    8.5746 C.ar    1  UNL1        0.2860
      9 O          59.2477   89.2668    7.4013 O.2     1  UNL1       -0.2650
     10 N          60.3839   89.8627    9.6606 N.ar    1  UNL1       -0.1749
     11 H          61.4091   84.2593    7.9829 H       1  UNL1        0.1871
     12 C          62.7545   84.8469   10.5871 C.3     1  UNL1        0.1046
     13 C          62.8017   84.9924   12.0793 C.3     1  UNL1        0.0243
     14 C          63.7852   83.9926   12.6116 C.3     1  UNL1        0.0021
     15 C          64.3458   83.2293   11.4484 C.3     1  UNL1        0.0021
     16 C          63.7088   83.7573   10.1973 C.3     1  UNL1        0.0243
     17 N          61.5199   90.4587   11.9199 N.pl3   1  UNL1       -0.2968
     18 H          60.7790   90.9128   12.3824 H       1  UNL1        0.1500
     19 C          63.9258   91.1753   11.2505 C.3     1  UNL1        0.0312
     20 C          62.9390   90.7598   12.3011 C.3     1  UNL1        0.1490
     21 C          63.3715   90.6455   13.7329 C.2     1  UNL1        0.2435
     22 O          62.6113   89.7626   14.6777 O.2     1  UNL1       -0.2731
     23 N          64.5642   91.4139   14.2198 N.am    1  UNL1       -0.2781
     24 C          65.2736   91.5501   15.5343 C.3     1  UNL1        0.0952
     25 C          66.2508   92.5006   14.9084 C.3     1  UNL1        0.0419
     26 C          66.9603   92.6369   16.2229 C.3     1  UNL1        0.0387
     27 C          67.9375   93.5873   15.5970 C.3     1  UNL1        0.1612
     28 F          69.1301   94.3558   16.0839 F       1  UNL1       -0.2373
     29 C          67.2280   93.4511   14.2825 C.3     1  UNL1        0.0387
     30 C          65.5413   92.3644   13.5938 C.3     1  UNL1        0.0952
@<TRIPOS>BOND
     1    20    19    1
     2    20    17    1
     3    17     1    1
     4     1     2   ar
     5     2     3   ar
     6     3     4    1
     7     4     5   ar
     8     5     6   ar
     9     6     7   ar
    10     7    12    1
    11    12    13    1
    12    13    14    1
    13    14    15    1
    14    15    16    1
    15     4     8   ar
    16     8     9    2
    17     8    10   ar
    18    20    21    1
    19    21    22    2
    20    21    23   am
    21    23    24    1
    22    24    25    1
    23    25    26    1
    24    26    27    1
    25    27    28    1
    26    27    29    1
    27    25    30    1
    28    10     1   ar
    29    30    23    1
    30     7     3   ar
    31    16    12    1
    32    29    25    1
    33    17    18    1
    34     6    11    1
@<TRIPOS>MOLECULE
*****
 30 34 0 0 0
SMALL
GASTEIGER

@<TRIPOS>ATOM
      1 C          63.9199   88.1028   14.4689 C.ar    1  UNL1        0.2212
      2 N          63.8817   86.8563   13.6353 N.ar    1  UNL1       -0.1948
      3 C          63.5002   85.5473   14.2606 C.ar    1  UNL1        0.1667
      4 C          63.1571   85.4848   15.7195 C.ar    1  UNL1        0.1117
      5 C          62.8206   84.0623   16.0560 C.ar    1  UNL1        0.0968
      6 N          62.9558   83.2457   14.8051 N.ar    1  UNL1       -0.2924
      7 N          63.3758   84.1634   13.6954 N.ar    1  UNL1       -0.2587
      8 C          63.1953   86.7312   16.5531 C.ar    1  UNL1        0.2860
      9 O          62.8522   86.6687   18.0120 O.2     1  UNL1       -0.2650
     10 N          63.5768   88.0402   15.9277 N.ar    1  UNL1       -0.1749
     11 H          62.7967   82.2773   14.7261 H       1  UNL1        0.1871
     12 C          63.6273   83.7670   12.2708 C.3     1  UNL1        0.1046
     13 C          63.0190   84.4054   11.0574 C.3     1  UNL1        0.0243
     14 C          63.5470   83.6954    9.8462 C.3     1  UNL1        0.0021
     15 C          64.4816   82.6181   10.3110 C.3     1  UNL1        0.0021
     16 C          64.5312   82.6624   11.8095 C.3     1  UNL1        0.0243
     17 N          64.3014   89.4118   13.8435 N.pl3   1  UNL1       -0.2968
     18 H          65.1264   89.8697   14.1244 H       1  UNL1        0.1500
     19 C          63.9528   91.1308   11.9270 C.3     1  UNL1        0.0312
     20 C          63.4258   90.0231   12.7902 C.3     1  UNL1        0.1490
     21 C          62.0231   89.5267   12.6000 C.2     1  UNL1        0.2435
     22 O          60.9515   89.9148   13.5752 O.2     1  UNL1       -0.2731
     23 N          61.6920   88.6422   11.4346 N.am    1  UNL1       -0.2781
     24 C          60.4478   87.9726   10.9312 C.3     1  UNL1        0.0952
     25 C          61.2238   87.3914    9.7866 C.3     1  UNL1        0.0419
     26 C          59.9796   86.7218    9.2830 C.3     1  UNL1        0.0387
     27 C          60.7555   86.1405    8.1385 C.3     1  UNL1        0.1612
     28 F          60.4245   85.2561    6.9732 F       1  UNL1       -0.2373
     29 C          61.9997   86.8101    8.6420 C.3     1  UNL1        0.0387
     30 C          62.4680   88.0610   10.2901 C.3     1  UNL1        0.0952
@<TRIPOS>BOND
     1    20    19    1
     2    20    17    1
     3    17     1    1
     4     1     2   ar
     5     2     3   ar
     6     3     4    1
     7     4     5   ar
     8     5     6   ar
     9     6     7   ar
    10     7    12    1
    11    12    13    1
    12    13    14    1
    13    14    15    1
    14    15    16    1
    15     4     8   ar
    16     8     9    2
    17     8    10   ar
    18    20    21    1
    19    21    22    2
    20    21    23   am
    21    23    24    1
    22    24    25    1
    23    25    26    1
    24    26    27    1
    25    27    28    1
    26    27    29    1
    27    25    30    1
    28    10     1   ar
    29    30    23    1
    30     7     3   ar
    31    16    12    1
    32    29    25    1
    33    17    18    1
    34     6    11    1
