@<TRIPOS>MOLECULE
*****
 35 39 0 0 0
SMALL
GASTEIGER

@<TRIPOS>ATOM
      1 O          63.6693   87.3241   13.3352 O.2     1  UNL1       -0.2699
      2 C          62.8128   86.6913   12.2788 C.2     1  UNL1        0.2506
      3 N          61.9280   87.5451   11.4198 N.am    1  UNL1       -0.2723
      4 C          61.0715   86.9123   10.3634 C.3     1  UNL1        0.1257
      5 C          60.1865   87.7662    9.5044 C.3     1  UNL1        0.1637
      6 O          60.1581   89.2528    9.7019 O.3     1  UNL1       -0.3502
      7 C          61.0146   89.8857   10.7583 C.3     1  UNL1        0.1622
      8 C          61.8995   89.0318   11.6172 C.3     1  UNL1        0.1096
      9 C          62.8413   85.2045   12.0814 C.ar    1  UNL1        0.0729
     10 C          62.8215   84.6315   10.6953 C.ar    1  UNL1        0.0060
     11 C          62.8500   83.1448   10.4979 C.ar    1  UNL1        0.0041
     12 C          62.8982   82.2312   11.6865 C.ar    1  UNL1        0.0730
     13 C          62.9179   82.8043   13.0726 C.ar    1  UNL1        0.0249
     14 C          62.8895   84.2909   13.2700 C.ar    1  UNL1        0.1072
     15 N          62.9092   84.8639   14.6561 N.ar    1  UNL1       -0.1477
     16 N          61.7272   85.0052   15.5687 N.ar    1  UNL1       -0.1447
     17 C          62.2019   85.6249   16.8496 C.ar    1  UNL1        0.1446
     18 C          63.6773   85.8666   16.7287 C.ar    1  UNL1        0.1446
     19 N          64.1145   85.3963   15.3730 N.ar    1  UNL1       -0.1447
     20 C          62.9266   80.7445   11.4891 C.3     1  UNL1        0.4186
     21 F          62.9550   79.2578   11.2918 F       1  UNL1       -0.1659
     22 F          62.6068   80.5457   12.9410 F       1  UNL1       -0.1659
     23 F          63.2464   80.9433   10.0372 F       1  UNL1       -0.1659
     24 C          62.7560   89.6646   12.6736 C.3     1  UNL1        0.0488
     25 C          63.7817   90.6906   12.2924 C.ar    1  UNL1       -0.0189
     26 C          63.7580   91.3018   10.9228 C.ar    1  UNL1       -0.0041
     27 C          64.7837   92.3278   10.5415 C.ar    1  UNL1        0.0013
     28 C          65.8331   92.7425   11.5299 C.ar    1  UNL1        0.0209
     29 C          65.8567   92.1312   12.8995 C.ar    1  UNL1        0.1026
     30 C          64.8310   91.1053   13.2808 C.ar    1  UNL1        0.0167
     31 N          66.9061   92.5459   13.8879 N.ar    1  UNL1       -0.1478
     32 N          68.3432   92.1163   13.8805 N.ar    1  UNL1       -0.1447
     33 C          69.0279   92.7679   15.0452 C.ar    1  UNL1        0.1446
     34 C          68.0139   93.6003   15.7725 C.ar    1  UNL1        0.1446
     35 N          66.7025   93.4632   15.0573 N.ar    1  UNL1       -0.1447
@<TRIPOS>BOND
     1     1     2    2
     2     2     9    1
     3     9    10   ar
     4    10    11   ar
     5    11    12   ar
     6    12    20    1
     7    20    21    1
     8    20    22    1
     9    20    23    1
    10    12    13   ar
    11    13    14   ar
    12    14    15    1
    13    15    16   ar
    14    16    17   ar
    15    17    18   ar
    16    18    19   ar
    17     2     3   am
    18     3     4    1
    19     4     5    1
    20     5     6    1
    21     6     7    1
    22     7     8    1
    23     8    24    1
    24    24    25    1
    25    25    26   ar
    26    26    27   ar
    27    27    28   ar
    28    28    29   ar
    29    29    31    1
    30    31    32   ar
    31    32    33   ar
    32    33    34   ar
    33    34    35   ar
    34    29    30   ar
    35    14     9   ar
    36    19    15   ar
    37     8     3    1
    38    30    25   ar
    39    35    31   ar
@<TRIPOS>MOLECULE
*****
 35 39 0 0 0
SMALL
GASTEIGER

@<TRIPOS>ATOM
      1 O          63.7781   87.5268   14.0514 O.2     1  UNL1       -0.2699
      2 C          63.1721   87.0720   12.7569 C.2     1  UNL1        0.2506
      3 N          62.6339   88.0803   11.7855 N.am    1  UNL1       -0.2723
      4 C          62.0278   87.6255   10.4910 C.3     1  UNL1        0.1257
      5 C          61.4896   88.6339    9.5197 C.3     1  UNL1        0.1637
      6 O          61.5574   90.0971    9.8429 O.3     1  UNL1       -0.3502
      7 C          62.1635   90.5519   11.1374 C.3     1  UNL1        0.1622
      8 C          62.7017   89.5436   12.1087 C.3     1  UNL1        0.1096
      9 C          63.1043   85.6087   12.4337 C.ar    1  UNL1        0.0729
     10 C          63.1508   85.1532   11.0053 C.ar    1  UNL1        0.0060
     11 C          63.0830   83.6901   10.6821 C.ar    1  UNL1        0.0041
     12 C          62.9687   82.6824   11.7873 C.ar    1  UNL1        0.0730
     13 C          62.9222   83.1379   13.2157 C.ar    1  UNL1        0.0249
     14 C          62.9900   84.6011   13.5389 C.ar    1  UNL1        0.1072
     15 N          62.9435   85.0566   14.9673 N.ar    1  UNL1       -0.1477
     16 N          64.1271   85.4008   15.8219 N.ar    1  UNL1       -0.1447
     17 C          63.6204   85.8048   17.1747 C.ar    1  UNL1        0.1446
     18 C          62.1235   85.7102   17.1561 C.ar    1  UNL1        0.1446
     19 N          61.7051   85.2478   15.7919 N.ar    1  UNL1       -0.1447
     20 C          62.9008   81.2192   11.4641 C.3     1  UNL1        0.4186
     21 F          62.8330   79.7560   11.1410 F       1  UNL1       -0.1659
     22 F          62.3114   80.9478   12.8164 F       1  UNL1       -0.1659
     23 F          63.4903   81.4905   10.1117 F       1  UNL1       -0.1659
     24 C          63.3077   89.9984   13.4033 C.3     1  UNL1        0.0488
     25 C          64.5750   90.8009   13.3971 C.ar    1  UNL1       -0.0189
     26 C          65.5485   90.6741   14.5312 C.ar    1  UNL1       -0.0041
     27 C          66.8158   91.4766   14.5250 C.ar    1  UNL1        0.0013
     28 C          67.1096   92.4058   13.3848 C.ar    1  UNL1        0.0209
     29 C          66.1360   92.5326   12.2506 C.ar    1  UNL1        0.1026
     30 C          64.8688   91.7301   12.2568 C.ar    1  UNL1        0.0167
     31 N          66.4298   93.4618   11.1104 N.ar    1  UNL1       -0.1478
     32 N          65.6391   94.6818   10.7411 N.ar    1  UNL1       -0.1447
     33 C          66.2865   95.3082    9.5416 C.ar    1  UNL1        0.1446
     34 C          67.4772   94.4753    9.1697 C.ar    1  UNL1        0.1446
     35 N          67.5658   93.3341   10.1392 N.ar    1  UNL1       -0.1447
@<TRIPOS>BOND
     1     1     2    2
     2     2     9    1
     3     9    10   ar
     4    10    11   ar
     5    11    12   ar
     6    12    20    1
     7    20    21    1
     8    20    22    1
     9    20    23    1
    10    12    13   ar
    11    13    14   ar
    12    14    15    1
    13    15    16   ar
    14    16    17   ar
    15    17    18   ar
    16    18    19   ar
    17     2     3   am
    18     3     4    1
    19     4     5    1
    20     5     6    1
    21     6     7    1
    22     7     8    1
    23     8    24    1
    24    24    25    1
    25    25    26   ar
    26    26    27   ar
    27    27    28   ar
    28    28    29   ar
    29    29    31    1
    30    31    32   ar
    31    32    33   ar
    32    33    34   ar
    33    34    35   ar
    34    29    30   ar
    35    14     9   ar
    36    19    15   ar
    37     8     3    1
    38    30    25   ar
    39    35    31   ar
@<TRIPOS>MOLECULE
*****
 35 39 0 0 0
SMALL
GASTEIGER

@<TRIPOS>ATOM
      1 O          63.6830   88.7647   12.2491 O.2     1  UNL1       -0.2699
      2 C          63.4881   87.6892   13.2763 C.2     1  UNL1        0.2506
      3 N          63.3918   88.0486   14.7294 N.am    1  UNL1       -0.2723
      4 C          63.1969   86.9731   15.7567 C.3     1  UNL1        0.1257
      5 C          63.1006   87.3325   17.2099 C.3     1  UNL1        0.1637
      6 O          63.1991   88.7674   17.6357 O.3     1  UNL1       -0.3502
      7 C          63.3940   89.8429   16.6084 C.3     1  UNL1        0.1622
      8 C          63.4903   89.4835   15.1553 C.3     1  UNL1        0.1096
      9 C          63.3895   86.2542   12.8505 C.ar    1  UNL1        0.0729
     10 C          64.1824   85.2027   13.5685 C.ar    1  UNL1        0.0060
     11 C          64.0839   83.7678   13.1427 C.ar    1  UNL1        0.0041
     12 C          63.1925   83.3845   11.9989 C.ar    1  UNL1        0.0730
     13 C          62.3996   84.4360   11.2808 C.ar    1  UNL1        0.0249
     14 C          62.4981   85.8709   11.7066 C.ar    1  UNL1        0.1072
     15 N          61.7052   86.9225   10.9886 N.ar    1  UNL1       -0.1477
     16 N          61.9930   87.4619    9.6189 N.ar    1  UNL1       -0.1447
     17 C          60.9510   88.4921    9.2980 C.ar    1  UNL1        0.1446
     18 C          60.0192   88.5893   10.4694 C.ar    1  UNL1        0.1446
     19 N          60.4853   87.6193   11.5142 N.ar    1  UNL1       -0.1447
     20 C          63.0939   81.9495   11.5730 C.3     1  UNL1        0.4186
     21 F          62.9954   80.5147   11.1471 F       1  UNL1       -0.1659
     22 F          64.2288   82.1562   10.6142 F       1  UNL1       -0.1659
     23 F          61.9590   81.7429   12.5318 F       1  UNL1       -0.1659
     24 C          63.6852   90.5590   14.1280 C.3     1  UNL1        0.0488
     25 C          65.0343   91.1899   13.9493 C.ar    1  UNL1       -0.0189
     26 C          66.0959   90.9981   14.9915 C.ar    1  UNL1       -0.0041
     27 C          67.4450   91.6290   14.8128 C.ar    1  UNL1        0.0013
     28 C          67.7325   92.4516   13.5919 C.ar    1  UNL1        0.0209
     29 C          66.6708   92.6434   12.5497 C.ar    1  UNL1        0.1026
     30 C          65.3218   92.0125   12.7284 C.ar    1  UNL1        0.0167
     31 N          66.9583   93.4660   11.3287 N.ar    1  UNL1       -0.1478
     32 N          67.6267   92.9814   10.0764 N.ar    1  UNL1       -0.1447
     33 C          67.7094   94.1336    9.1194 C.ar    1  UNL1        0.1446
     34 C          67.0920   95.3303    9.7804 C.ar    1  UNL1        0.1446
     35 N          66.6278   94.9177   11.1458 N.ar    1  UNL1       -0.1447
@<TRIPOS>BOND
     1     1     2    2
     2     2     9    1
     3     9    10   ar
     4    10    11   ar
     5    11    12   ar
     6    12    20    1
     7    20    21    1
     8    20    22    1
     9    20    23    1
    10    12    13   ar
    11    13    14   ar
    12    14    15    1
    13    15    16   ar
    14    16    17   ar
    15    17    18   ar
    16    18    19   ar
    17     2     3   am
    18     3     4    1
    19     4     5    1
    20     5     6    1
    21     6     7    1
    22     7     8    1
    23     8    24    1
    24    24    25    1
    25    25    26   ar
    26    26    27   ar
    27    27    28   ar
    28    28    29   ar
    29    29    31    1
    30    31    32   ar
    31    32    33   ar
    32    33    34   ar
    33    34    35   ar
    34    29    30   ar
    35    14     9   ar
    36    19    15   ar
    37     8     3    1
    38    30    25   ar
    39    35    31   ar
@<TRIPOS>MOLECULE
*****
 35 39 0 0 0
SMALL
GASTEIGER

@<TRIPOS>ATOM
      1 O          63.4775   88.2398   11.8095 O.2     1  UNL1       -0.2699
      2 C          63.4359   87.5981   13.1647 C.2     1  UNL1        0.2506
      3 N          63.3686   88.4512   14.3967 N.am    1  UNL1       -0.2723
      4 C          63.3270   87.8095   15.7519 C.3     1  UNL1        0.1257
      5 C          63.2598   88.6626   16.9839 C.3     1  UNL1        0.1637
      6 O          63.2341   90.1573   16.8606 O.3     1  UNL1       -0.3502
      7 C          63.2757   90.7990   15.5054 C.3     1  UNL1        0.1622
      8 C          63.3430   89.9459   14.2735 C.3     1  UNL1        0.1096
      9 C          63.4615   86.1034   13.2879 C.ar    1  UNL1        0.0729
     10 C          64.2275   85.4558   14.4032 C.ar    1  UNL1        0.0060
     11 C          64.2532   83.9611   14.5265 C.ar    1  UNL1        0.0041
     12 C          63.5129   83.1140   13.5344 C.ar    1  UNL1        0.0730
     13 C          62.7469   83.7616   12.4190 C.ar    1  UNL1        0.0249
     14 C          62.7213   85.2562   12.2958 C.ar    1  UNL1        0.1072
     15 N          61.9553   85.9038   11.1805 N.ar    1  UNL1       -0.1477
     16 N          60.7727   86.8135   11.3350 N.ar    1  UNL1       -0.1447
     17 C          60.3239   87.2273    9.9648 C.ar    1  UNL1        0.1446
     18 C          61.2292   86.5733    8.9634 C.ar    1  UNL1        0.1446
     19 N          62.2374   85.7554    9.7147 N.ar    1  UNL1       -0.1447
     20 C          63.5386   81.6193   13.6576 C.3     1  UNL1        0.4186
     21 F          63.5643   80.1246   13.7807 F       1  UNL1       -0.1659
     22 F          64.7110   81.5625   12.7237 F       1  UNL1       -0.1659
     23 F          62.3661   81.6760   14.5914 F       1  UNL1       -0.1659
     24 C          63.3846   90.5876   12.9183 C.3     1  UNL1        0.0488
     25 C          64.5409   91.4644   12.5388 C.ar    1  UNL1       -0.0189
     26 C          64.6482   92.0015   11.1424 C.ar    1  UNL1       -0.0041
     27 C          65.8045   92.8784   10.7628 C.ar    1  UNL1        0.0013
     28 C          66.8535   93.2182   11.7798 C.ar    1  UNL1        0.0209
     29 C          66.7462   92.6811   13.1763 C.ar    1  UNL1        0.1026
     30 C          65.5899   91.8042   13.5557 C.ar    1  UNL1        0.0167
     31 N          67.7951   93.0209   14.1932 N.ar    1  UNL1       -0.1478
     32 N          69.2023   92.5019   14.2156 N.ar    1  UNL1       -0.1447
     33 C          69.8980   93.0996   15.4025 C.ar    1  UNL1        0.1446
     34 C          68.9208   93.9880   16.1137 C.ar    1  UNL1        0.1446
     35 N          67.6211   93.9394   15.3664 N.ar    1  UNL1       -0.1447
@<TRIPOS>BOND
     1     1     2    2
     2     2     9    1
     3     9    10   ar
     4    10    11   ar
     5    11    12   ar
     6    12    20    1
     7    20    21    1
     8    20    22    1
     9    20    23    1
    10    12    13   ar
    11    13    14   ar
    12    14    15    1
    13    15    16   ar
    14    16    17   ar
    15    17    18   ar
    16    18    19   ar
    17     2     3   am
    18     3     4    1
    19     4     5    1
    20     5     6    1
    21     6     7    1
    22     7     8    1
    23     8    24    1
    24    24    25    1
    25    25    26   ar
    26    26    27   ar
    27    27    28   ar
    28    28    29   ar
    29    29    31    1
    30    31    32   ar
    31    32    33   ar
    32    33    34   ar
    33    34    35   ar
    34    29    30   ar
    35    14     9   ar
    36    19    15   ar
    37     8     3    1
    38    30    25   ar
    39    35    31   ar
