@<TRIPOS>MOLECULE
*****
 34 38 0 0 0
SMALL
GASTEIGER

@<TRIPOS>ATOM
      1 C          63.5916   89.2919   13.0787 C.ar    1  UNL1        0.0447
      2 C          64.3652   89.5573   14.3361 C.ar    1  UNL1        0.0156
      3 C          64.8181   88.4129   15.1936 C.ar    1  UNL1        0.0159
      4 C          64.4975   87.0032   14.7936 C.ar    1  UNL1        0.0507
      5 C          63.7239   86.7378   13.5362 C.ar    1  UNL1        0.0192
      6 C          63.2709   87.8822   12.6788 C.ar    1  UNL1        0.0157
      7 C          63.5575   85.2535   13.3990 C.2     1  UNL1        0.0578
      8 C          62.8454   84.5454   12.2847 C.2     1  UNL1        0.0383
      9 C          64.2283   84.6014   14.5715 C.2     1  UNL1        0.2496
     10 O          64.3047   83.1268   14.8357 O.2     1  UNL1       -0.2698
     11 N          64.8093   85.6828   15.4335 N.am    1  UNL1       -0.2804
     12 H          65.3077   85.5494   16.2720 H       1  UNL1        0.1552
     13 C          62.7593   83.0479   12.2817 C.ar    1  UNL1        0.0030
     14 C          63.3992   82.2621   11.1758 C.ar    1  UNL1        0.0001
     15 C          63.3131   80.7646   11.1727 C.ar    1  UNL1        0.0000
     16 C          62.5871   80.0528   12.2756 C.ar    1  UNL1        0.0000
     17 C          61.9471   80.8386   13.3815 C.ar    1  UNL1        0.0000
     18 C          62.0332   82.3362   13.3845 C.ar    1  UNL1        0.0001
     19 C          62.2194   85.3348   11.1735 C.ar    1  UNL1        0.1407
     20 N          62.6912   85.3811    9.7504 N.ar    1  UNL1       -0.2254
     21 C          61.7751   86.2914    8.9875 C.ar    1  UNL1        0.1189
     22 C          60.7369   86.8078    9.9392 C.ar    1  UNL1        0.0945
     23 N          61.0115   86.2167   11.2902 N.ar    1  UNL1       -0.3361
     24 H          60.4904   86.3789   12.1096 H       1  UNL1        0.1674
     25 N          63.1386   90.4362   12.2212 N.pl3   1  UNL1       -0.3339
     26 H          62.2098   90.4705   11.8965 H       1  UNL1        0.1468
     27 N          66.0248   93.7126   11.1327 N.3     1  UNL1       -0.2726
     28 C          65.9615   93.2070   12.5435 C.3     1  UNL1        0.0738
     29 C          64.9994   92.1148   12.9063 C.3     1  UNL1        0.0368
     30 C          64.1006   91.5283   11.8584 C.3     1  UNL1        0.0718
     31 C          64.1640   92.0340   10.4475 C.3     1  UNL1        0.0368
     32 C          65.1261   93.1261   10.0848 C.3     1  UNL1        0.0738
     33 C          67.6372   94.8130    9.4182 C.3     1  UNL1        0.0188
     34 C          66.9869   94.8047   10.7699 C.3     1  UNL1        0.0721
@<TRIPOS>BOND
     1    33    34    1
     2    34    27    1
     3    27    28    1
     4    28    29    1
     5    29    30    1
     6    30    25    1
     7    25     1    1
     8     1     2   ar
     9     2     3   ar
    10     3     4   ar
    11     4     5   ar
    12     5     6   ar
    13     5     7    1
    14     7     8    2
    15     8    13    1
    16    13    14   ar
    17    14    15   ar
    18    15    16   ar
    19    16    17   ar
    20    17    18   ar
    21     8    19    1
    22    19    20   ar
    23    20    21   ar
    24    21    22   ar
    25    22    23   ar
    26     7     9    1
    27     9    10    2
    28     9    11   am
    29    30    31    1
    30    31    32    1
    31    32    27    1
    32     6     1   ar
    33    18    13   ar
    34    23    19   ar
    35    11     4    1
    36    25    26    1
    37    23    24    1
    38    11    12    1
@<TRIPOS>MOLECULE
*****
 34 38 0 0 0
SMALL
GASTEIGER

@<TRIPOS>ATOM
      1 C          61.7074   88.1222   11.0966 C.ar    1  UNL1        0.0447
      2 C          61.4370   88.8617    9.8199 C.ar    1  UNL1        0.0156
      3 C          62.1229   90.1681    9.5502 C.ar    1  UNL1        0.0159
      4 C          63.0792   90.7350   10.5572 C.ar    1  UNL1        0.0507
      5 C          63.3496   89.9955   11.8339 C.ar    1  UNL1        0.0192
      6 C          62.6637   88.6891   12.1036 C.ar    1  UNL1        0.0157
      7 C          64.3349   90.7956   12.6332 C.2     1  UNL1        0.0578
      8 C          64.8851   90.4265   13.9790 C.2     1  UNL1        0.0383
      9 C          64.6735   92.0296   11.8505 C.2     1  UNL1        0.2496
     10 O          65.6217   93.1112   12.2763 O.2     1  UNL1       -0.2698
     11 N          63.8975   91.9922   10.5675 N.am    1  UNL1       -0.2804
     12 H          63.9210   92.6732    9.8569 H       1  UNL1        0.1552
     13 C          65.8687   91.3307   14.6608 C.ar    1  UNL1        0.0030
     14 C          65.4272   92.1900   15.8083 C.ar    1  UNL1        0.0001
     15 C          66.4109   93.0941   16.4901 C.ar    1  UNL1        0.0000
     16 C          67.8361   93.1390   16.0245 C.ar    1  UNL1        0.0000
     17 C          68.2776   92.2797   14.8771 C.ar    1  UNL1        0.0000
     18 C          67.2939   91.3756   14.1952 C.ar    1  UNL1        0.0001
     19 C          64.4516   89.1533   14.6430 C.ar    1  UNL1        0.1407
     20 N          64.9418   87.7749   14.3116 N.ar    1  UNL1       -0.2254
     21 C          64.2451   86.8045   15.2187 C.ar    1  UNL1        0.1189
     22 C          63.3242   87.5832   16.1108 C.ar    1  UNL1        0.0945
     23 N          63.4519   89.0347   15.7550 N.ar    1  UNL1       -0.3361
     24 H          62.9650   89.7790   16.1772 H       1  UNL1        0.1674
     25 N          61.0214   86.8157   11.3664 N.pl3   1  UNL1       -0.3339
     26 H          60.0383   86.7645   11.3557 H       1  UNL1        0.1468
     27 N          63.4573   83.1305   12.2241 N.3     1  UNL1       -0.2726
     28 C          63.3158   83.6248   10.8150 C.3     1  UNL1        0.0738
     29 C          62.5038   84.8532   10.5290 C.3     1  UNL1        0.0368
     30 C          61.8334   85.5873   11.6523 C.3     1  UNL1        0.0718
     31 C          61.9749   85.0930   13.0614 C.3     1  UNL1        0.0368
     32 C          62.7868   83.8646   13.3473 C.3     1  UNL1        0.0738
     33 C          63.8373   80.9514   13.5869 C.3     1  UNL1        0.0188
     34 C          64.2692   81.9021   12.5100 C.3     1  UNL1        0.0721
@<TRIPOS>BOND
     1    33    34    1
     2    34    27    1
     3    27    28    1
     4    28    29    1
     5    29    30    1
     6    30    25    1
     7    25     1    1
     8     1     2   ar
     9     2     3   ar
    10     3     4   ar
    11     4     5   ar
    12     5     6   ar
    13     5     7    1
    14     7     8    2
    15     8    13    1
    16    13    14   ar
    17    14    15   ar
    18    15    16   ar
    19    16    17   ar
    20    17    18   ar
    21     8    19    1
    22    19    20   ar
    23    20    21   ar
    24    21    22   ar
    25    22    23   ar
    26     7     9    1
    27     9    10    2
    28     9    11   am
    29    30    31    1
    30    31    32    1
    31    32    27    1
    32     6     1   ar
    33    18    13   ar
    34    23    19   ar
    35    11     4    1
    36    25    26    1
    37    23    24    1
    38    11    12    1
@<TRIPOS>MOLECULE
*****
 34 38 0 0 0
SMALL
GASTEIGER

@<TRIPOS>ATOM
      1 C          62.8879   89.9779   12.9860 C.ar    1  UNL1        0.0447
      2 C          62.4453   90.7101   11.7540 C.ar    1  UNL1        0.0156
      3 C          62.1430   89.9490   10.4973 C.ar    1  UNL1        0.0159
      4 C          62.2833   88.4558   10.4726 C.ar    1  UNL1        0.0507
      5 C          62.7259   87.7236   11.7047 C.ar    1  UNL1        0.0192
      6 C          63.0281   88.4847   12.9614 C.ar    1  UNL1        0.0157
      7 C          62.7737   86.2596   11.3818 C.2     1  UNL1        0.0578
      8 C          63.1657   85.1611   12.3249 C.2     1  UNL1        0.0383
      9 C          62.3606   86.0869    9.9501 C.2     1  UNL1        0.2496
     10 O          62.2671   84.7853    9.2103 O.2     1  UNL1       -0.2698
     11 N          62.0576   87.4442    9.3882 N.am    1  UNL1       -0.2804
     12 H          61.7623   87.6373    8.4691 H       1  UNL1        0.1552
     13 C          63.1662   83.7358   11.8575 C.ar    1  UNL1        0.0030
     14 C          62.2711   82.7295   12.5179 C.ar    1  UNL1        0.0001
     15 C          62.2716   81.3042   12.0504 C.ar    1  UNL1        0.0000
     16 C          63.1673   80.8852   10.9226 C.ar    1  UNL1        0.0000
     17 C          64.0624   81.8914   10.2622 C.ar    1  UNL1        0.0000
     18 C          64.0619   83.3167   10.7296 C.ar    1  UNL1        0.0001
     19 C          63.5572   85.4878   13.7356 C.ar    1  UNL1        0.1407
     20 N          62.7289   85.2376   14.9609 N.ar    1  UNL1       -0.2254
     21 C          63.5053   85.7171   16.1513 C.ar    1  UNL1        0.1189
     22 C          64.8136   86.2639   15.6617 C.ar    1  UNL1        0.0945
     23 N          64.8456   86.1221   14.1687 N.ar    1  UNL1       -0.3361
     24 H          65.5829   86.3971   13.5770 H       1  UNL1        0.1674
     25 N          63.1902   90.7390   14.2428 N.pl3   1  UNL1       -0.3339
     26 H          62.4851   90.8781   14.9157 H       1  UNL1        0.1468
     27 N          67.3199   92.3860   14.9377 N.3     1  UNL1       -0.2726
     28 C          66.9479   91.8372   13.5922 C.3     1  UNL1        0.0738
     29 C          65.5713   91.2882   13.3605 C.3     1  UNL1        0.0368
     30 C          64.5667   91.2880   14.4744 C.3     1  UNL1        0.0718
     31 C          64.9387   91.8368   15.8200 C.3     1  UNL1        0.0368
     32 C          66.3153   92.3858   16.0516 C.3     1  UNL1        0.0738
     33 C          68.8860   94.1412   16.0406 C.3     1  UNL1        0.0188
     34 C          68.6964   92.9350   15.1693 C.3     1  UNL1        0.0721
@<TRIPOS>BOND
     1    33    34    1
     2    34    27    1
     3    27    28    1
     4    28    29    1
     5    29    30    1
     6    30    25    1
     7    25     1    1
     8     1     2   ar
     9     2     3   ar
    10     3     4   ar
    11     4     5   ar
    12     5     6   ar
    13     5     7    1
    14     7     8    2
    15     8    13    1
    16    13    14   ar
    17    14    15   ar
    18    15    16   ar
    19    16    17   ar
    20    17    18   ar
    21     8    19    1
    22    19    20   ar
    23    20    21   ar
    24    21    22   ar
    25    22    23   ar
    26     7     9    1
    27     9    10    2
    28     9    11   am
    29    30    31    1
    30    31    32    1
    31    32    27    1
    32     6     1   ar
    33    18    13   ar
    34    23    19   ar
    35    11     4    1
    36    25    26    1
    37    23    24    1
    38    11    12    1
@<TRIPOS>MOLECULE
*****
 34 38 0 0 0
SMALL
GASTEIGER

@<TRIPOS>ATOM
      1 C          63.8316   88.1596   14.8540 C.ar    1  UNL1        0.0447
      2 C          64.3840   87.0105   15.6442 C.ar    1  UNL1        0.0156
      3 C          64.4155   85.6354   15.0459 C.ar    1  UNL1        0.0159
      4 C          63.8948   85.4094   13.6575 C.ar    1  UNL1        0.0507
      5 C          63.3424   86.5585   12.8673 C.ar    1  UNL1        0.0192
      6 C          63.3108   87.9336   13.4656 C.ar    1  UNL1        0.0157
      7 C          62.9031   86.0344   11.5323 C.2     1  UNL1        0.0578
      8 C          62.2905   86.8416   10.4264 C.2     1  UNL1        0.0383
      9 C          63.1840   84.5613   11.4974 C.2     1  UNL1        0.2496
     10 O          62.9015   83.6369   10.3503 O.2     1  UNL1       -0.2698
     11 N          63.7968   84.1750   12.8108 N.am    1  UNL1       -0.2804
     12 H          64.0843   83.2702   13.0714 H       1  UNL1        0.1552
     13 C          61.8994   86.1763    9.1401 C.ar    1  UNL1        0.0030
     14 C          60.4684   86.1949    8.6911 C.ar    1  UNL1        0.0001
     15 C          60.0773   85.5296    7.4048 C.ar    1  UNL1        0.0000
     16 C          61.1172   84.8458    6.5676 C.ar    1  UNL1        0.0000
     17 C          62.5483   84.8272    7.0167 C.ar    1  UNL1        0.0000
     18 C          62.9394   85.4925    8.3030 C.ar    1  UNL1        0.0001
     19 C          62.0690   88.3142   10.6066 C.ar    1  UNL1        0.1407
     20 N          62.8886   89.4107    9.9934 N.ar    1  UNL1       -0.2254
     21 C          62.3153   90.7229   10.4394 C.ar    1  UNL1        0.1189
     22 C          61.1412   90.4376   11.3284 C.ar    1  UNL1        0.0945
     23 N          60.9890   88.9489   11.4318 N.ar    1  UNL1       -0.3361
     24 H          60.3011   88.4722   11.9501 H       1  UNL1        0.1674
     25 N          63.8000   89.5349   15.4523 N.pl3   1  UNL1       -0.3339
     26 H          63.3467   89.6870   16.3128 H       1  UNL1        0.1468
     27 N          65.7775   92.9650   13.3136 N.3     1  UNL1       -0.2726
     28 C          64.9182   92.0008   12.5507 C.3     1  UNL1        0.0738
     29 C          64.2590   90.8574   13.2636 C.3     1  UNL1        0.0368
     30 C          64.4591   90.6782   14.7394 C.3     1  UNL1        0.0718
     31 C          65.3185   91.6425   15.5022 C.3     1  UNL1        0.0368
     32 C          65.9776   92.7858   14.7893 C.3     1  UNL1        0.0738
     33 C          66.0583   94.4274   11.1846 C.3     1  UNL1        0.0188
     34 C          66.4366   94.1083   12.6007 C.3     1  UNL1        0.0721
@<TRIPOS>BOND
     1    33    34    1
     2    34    27    1
     3    27    28    1
     4    28    29    1
     5    29    30    1
     6    30    25    1
     7    25     1    1
     8     1     2   ar
     9     2     3   ar
    10     3     4   ar
    11     4     5   ar
    12     5     6   ar
    13     5     7    1
    14     7     8    2
    15     8    13    1
    16    13    14   ar
    17    14    15   ar
    18    15    16   ar
    19    16    17   ar
    20    17    18   ar
    21     8    19    1
    22    19    20   ar
    23    20    21   ar
    24    21    22   ar
    25    22    23   ar
    26     7     9    1
    27     9    10    2
    28     9    11   am
    29    30    31    1
    30    31    32    1
    31    32    27    1
    32     6     1   ar
    33    18    13   ar
    34    23    19   ar
    35    11     4    1
    36    25    26    1
    37    23    24    1
    38    11    12    1
@<TRIPOS>MOLECULE
*****
 34 38 0 0 0
SMALL
GASTEIGER

@<TRIPOS>ATOM
      1 C          62.6710   89.5030   11.9917 C.ar    1  UNL1        0.0447
      2 C          62.3657   89.6693   10.5326 C.ar    1  UNL1        0.0156
      3 C          62.1937   88.4615    9.6599 C.ar    1  UNL1        0.0159
      4 C          62.3272   87.0874   10.2463 C.ar    1  UNL1        0.0507
      5 C          62.6326   86.9210   11.7054 C.ar    1  UNL1        0.0192
      6 C          62.8045   88.1288   12.5781 C.ar    1  UNL1        0.0157
      7 C          62.7058   85.4519   11.9991 C.2     1  UNL1        0.0578
      8 C          62.9893   84.8331   13.3357 C.2     1  UNL1        0.0383
      9 C          62.4456   84.7102   10.7214 C.2     1  UNL1        0.2496
     10 O          62.4234   83.2195   10.5562 O.2     1  UNL1       -0.2698
     11 N          62.2117   85.7210    9.6381 N.am    1  UNL1       -0.2804
     12 H          62.0165   85.5225    8.6938 H       1  UNL1        0.1552
     13 C          63.0311   83.3403   13.4774 C.ar    1  UNL1        0.0030
     14 C          64.2666   82.5843   13.0879 C.ar    1  UNL1        0.0001
     15 C          64.3084   81.0915   13.2296 C.ar    1  UNL1        0.0000
     16 C          63.1146   80.3549   13.7609 C.ar    1  UNL1        0.0000
     17 C          61.8791   81.1110   14.1505 C.ar    1  UNL1        0.0000
     18 C          61.8373   82.6037   14.0087 C.ar    1  UNL1        0.0001
     19 C          63.2312   85.7068   14.5307 C.ar    1  UNL1        0.1407
     20 N          64.1703   86.8748   14.5933 N.ar    1  UNL1       -0.2254
     21 C          64.0959   87.4560   15.9741 C.ar    1  UNL1        0.1189
     22 C          63.1108   86.6472   16.7650 C.ar    1  UNL1        0.0945
     23 N          62.5764   85.5662   15.8729 N.ar    1  UNL1       -0.3361
     24 H          61.9124   84.8841   16.1242 H       1  UNL1        0.1674
     25 N          62.8430   90.7108   12.8644 N.pl3   1  UNL1       -0.3339
     26 H          62.0527   91.1988   13.1909 H       1  UNL1        0.1468
     27 N          66.9711   92.1038   13.9905 N.3     1  UNL1       -0.2726
     28 C          66.3709   92.5192   12.6801 C.3     1  UNL1        0.0738
     29 C          64.9948   92.0548   12.3047 C.3     1  UNL1        0.0368
     30 C          64.2190   91.1752   13.2398 C.3     1  UNL1        0.0718
     31 C          64.8193   90.7598   14.5502 C.3     1  UNL1        0.0368
     32 C          66.1953   91.2242   14.9255 C.3     1  UNL1        0.0738
     33 C          68.7186   92.7221   15.8109 C.3     1  UNL1        0.0188
     34 C          68.3471   92.5682   14.3658 C.3     1  UNL1        0.0721
@<TRIPOS>BOND
     1    33    34    1
     2    34    27    1
     3    27    28    1
     4    28    29    1
     5    29    30    1
     6    30    25    1
     7    25     1    1
     8     1     2   ar
     9     2     3   ar
    10     3     4   ar
    11     4     5   ar
    12     5     6   ar
    13     5     7    1
    14     7     8    2
    15     8    13    1
    16    13    14   ar
    17    14    15   ar
    18    15    16   ar
    19    16    17   ar
    20    17    18   ar
    21     8    19    1
    22    19    20   ar
    23    20    21   ar
    24    21    22   ar
    25    22    23   ar
    26     7     9    1
    27     9    10    2
    28     9    11   am
    29    30    31    1
    30    31    32    1
    31    32    27    1
    32     6     1   ar
    33    18    13   ar
    34    23    19   ar
    35    11     4    1
    36    25    26    1
    37    23    24    1
    38    11    12    1
@<TRIPOS>MOLECULE
*****
 34 38 0 0 0
SMALL
GASTEIGER

@<TRIPOS>ATOM
      1 C          63.6649   89.2125   13.1083 C.ar    1  UNL1        0.0447
      2 C          64.4080   89.5403   14.3693 C.ar    1  UNL1        0.0156
      3 C          64.8077   88.4433   15.3110 C.ar    1  UNL1        0.0159
      4 C          64.4642   87.0185   14.9916 C.ar    1  UNL1        0.0507
      5 C          63.7210   86.6907   13.7306 C.ar    1  UNL1        0.0192
      6 C          63.3214   87.7877   12.7889 C.ar    1  UNL1        0.0157
      7 C          63.5222   85.2047   13.6827 C.2     1  UNL1        0.0578
      8 C          62.8254   84.4431   12.5944 C.2     1  UNL1        0.0383
      9 C          64.1425   84.6141   14.9141 C.2     1  UNL1        0.2496
     10 O          64.1749   83.1581   15.2735 O.2     1  UNL1       -0.2698
     11 N          64.7247   85.7350   15.7231 N.am    1  UNL1       -0.2804
     12 H          65.1952   85.6444   16.5832 H       1  UNL1        0.1552
     13 C          62.7026   82.9508   12.6837 C.ar    1  UNL1        0.0030
     14 C          63.3677   82.0808   11.6585 C.ar    1  UNL1        0.0001
     15 C          63.2449   80.5885   11.7478 C.ar    1  UNL1        0.0000
     16 C          62.4570   79.9662   12.8622 C.ar    1  UNL1        0.0000
     17 C          61.7920   80.8361   13.8874 C.ar    1  UNL1        0.0000
     18 C          61.9148   82.3284   13.7981 C.ar    1  UNL1        0.0001
     19 C          62.2515   85.1736   11.4168 C.ar    1  UNL1        0.1407
     20 N          62.7796   85.1367   10.0133 N.ar    1  UNL1       -0.2254
     21 C          61.9032   86.0096    9.1650 C.ar    1  UNL1        0.1189
     22 C          60.8333   86.5862   10.0442 C.ar    1  UNL1        0.0945
     23 N          61.0485   86.0696   11.4358 N.ar    1  UNL1       -0.3361
     24 H          60.4970   86.2813   12.2234 H       1  UNL1        0.1674
     25 N          63.2652   90.3095   12.1665 N.pl3   1  UNL1       -0.3339
     26 H          63.6752   91.2009   12.2468 H       1  UNL1        0.1468
     27 N          60.1918   89.5260    8.9743 N.3     1  UNL1       -0.2726
     28 C          59.7558   89.9135   10.3562 C.3     1  UNL1        0.0738
     29 C          60.7802   90.1747   11.4203 C.3     1  UNL1        0.0368
     30 C          62.2407   90.0483   11.1025 C.3     1  UNL1        0.0718
     31 C          62.6767   89.6608    9.7205 C.3     1  UNL1        0.0368
     32 C          61.6523   89.3996    8.6564 C.3     1  UNL1        0.0738
     33 C          59.4359   89.6770    6.4932 C.3     1  UNL1        0.0188
     34 C          59.1673   89.2648    7.9102 C.3     1  UNL1        0.0721
@<TRIPOS>BOND
     1    33    34    1
     2    34    27    1
     3    27    28    1
     4    28    29    1
     5    29    30    1
     6    30    25    1
     7    25     1    1
     8     1     2   ar
     9     2     3   ar
    10     3     4   ar
    11     4     5   ar
    12     5     6   ar
    13     5     7    1
    14     7     8    2
    15     8    13    1
    16    13    14   ar
    17    14    15   ar
    18    15    16   ar
    19    16    17   ar
    20    17    18   ar
    21     8    19    1
    22    19    20   ar
    23    20    21   ar
    24    21    22   ar
    25    22    23   ar
    26     7     9    1
    27     9    10    2
    28     9    11   am
    29    30    31    1
    30    31    32    1
    31    32    27    1
    32     6     1   ar
    33    18    13   ar
    34    23    19   ar
    35    11     4    1
    36    25    26    1
    37    23    24    1
    38    11    12    1
@<TRIPOS>MOLECULE
*****
 34 38 0 0 0
SMALL
GASTEIGER

@<TRIPOS>ATOM
      1 C          62.7911   89.1473   11.9216 C.ar    1  UNL1        0.0447
      2 C          62.4847   89.2897   10.4601 C.ar    1  UNL1        0.0156
      3 C          62.2492   88.0691    9.6208 C.ar    1  UNL1        0.0159
      4 C          62.3200   86.7060   10.2429 C.ar    1  UNL1        0.0507
      5 C          62.6264   86.5636   11.7043 C.ar    1  UNL1        0.0192
      6 C          62.8619   87.7842   12.5436 C.ar    1  UNL1        0.0157
      7 C          62.6306   85.1008   12.0366 C.2     1  UNL1        0.0578
      8 C          62.8926   84.5044   13.3877 C.2     1  UNL1        0.0383
      9 C          62.3268   84.3393   10.7805 C.2     1  UNL1        0.2496
     10 O          62.2318   82.8475   10.6551 O.2     1  UNL1       -0.2698
     11 N          62.1349   85.3313    9.6719 N.am    1  UNL1       -0.2804
     12 H          61.9243   85.1176    8.7342 H       1  UNL1        0.1552
     13 C          62.8633   83.0157   13.5689 C.ar    1  UNL1        0.0030
     14 C          61.5958   82.3370   13.9963 C.ar    1  UNL1        0.0001
     15 C          61.5665   80.8483   14.1775 C.ar    1  UNL1        0.0000
     16 C          62.8047   80.0382   13.9313 C.ar    1  UNL1        0.0000
     17 C          64.0722   80.7169   13.5039 C.ar    1  UNL1        0.0000
     18 C          64.1015   82.2057   13.3227 C.ar    1  UNL1        0.0001
     19 C          63.1839   85.3967   14.5578 C.ar    1  UNL1        0.1407
     20 N          62.4714   85.3808   15.8777 N.ar    1  UNL1       -0.2254
     21 C          63.0859   86.4357   16.7490 C.ar    1  UNL1        0.1189
     22 C          64.1784   87.1037   15.9677 C.ar    1  UNL1        0.0945
     23 N          64.2390   86.4616   14.6135 N.ar    1  UNL1       -0.3361
     24 H          64.8618   86.6976   13.8885 H       1  UNL1        0.1674
     25 N          63.0266   90.3680   12.7610 N.pl3   1  UNL1       -0.3339
     26 H          62.5321   90.4888   13.6036 H       1  UNL1        0.1468
     27 N          65.9938   93.4773   11.4275 N.3     1  UNL1       -0.2726
     28 C          65.9543   93.0453   12.8634 C.3     1  UNL1        0.0738
     29 C          64.9652   92.0089   13.3080 C.3     1  UNL1        0.0368
     30 C          64.0157   91.4044   12.3165 C.3     1  UNL1        0.0718
     31 C          64.0552   91.8364   10.8806 C.3     1  UNL1        0.0368
     32 C          65.0442   92.8728   10.4361 C.3     1  UNL1        0.0738
     33 C          66.7320   95.3019    9.7318 C.3     1  UNL1        0.0188
     34 C          66.9828   94.5137   10.9831 C.3     1  UNL1        0.0721
@<TRIPOS>BOND
     1    33    34    1
     2    34    27    1
     3    27    28    1
     4    28    29    1
     5    29    30    1
     6    30    25    1
     7    25     1    1
     8     1     2   ar
     9     2     3   ar
    10     3     4   ar
    11     4     5   ar
    12     5     6   ar
    13     5     7    1
    14     7     8    2
    15     8    13    1
    16    13    14   ar
    17    14    15   ar
    18    15    16   ar
    19    16    17   ar
    20    17    18   ar
    21     8    19    1
    22    19    20   ar
    23    20    21   ar
    24    21    22   ar
    25    22    23   ar
    26     7     9    1
    27     9    10    2
    28     9    11   am
    29    30    31    1
    30    31    32    1
    31    32    27    1
    32     6     1   ar
    33    18    13   ar
    34    23    19   ar
    35    11     4    1
    36    25    26    1
    37    23    24    1
    38    11    12    1
@<TRIPOS>MOLECULE
*****
 34 38 0 0 0
SMALL
GASTEIGER

@<TRIPOS>ATOM
      1 C          64.3459   87.6788   14.2982 C.ar    1  UNL1        0.0447
      2 C          64.4819   89.0396   14.9143 C.ar    1  UNL1        0.0156
      3 C          63.7785   90.2140   14.3013 C.ar    1  UNL1        0.0159
      4 C          62.9391   90.0277   13.0722 C.ar    1  UNL1        0.0507
      5 C          62.8031   88.6668   12.4561 C.ar    1  UNL1        0.0192
      6 C          63.5065   87.4924   13.0692 C.ar    1  UNL1        0.0157
      7 C          61.9139   88.7889   11.2543 C.2     1  UNL1        0.0578
      8 C          61.5093   87.6709   10.3398 C.2     1  UNL1        0.0383
      9 C          61.5003   90.2252   11.1276 C.2     1  UNL1        0.2496
     10 O          60.6095   90.7956   10.0640 O.2     1  UNL1       -0.2698
     11 N          62.1339   90.9908   12.2511 N.am    1  UNL1       -0.2804
     12 H          62.0381   91.9560   12.4200 H       1  UNL1        0.1552
     13 C          60.6097   87.9459    9.1714 C.ar    1  UNL1        0.0030
     14 C          60.7341   89.2361    8.4164 C.ar    1  UNL1        0.0001
     15 C          59.8345   89.5111    7.2480 C.ar    1  UNL1        0.0000
     16 C          58.8105   88.4960    6.8346 C.ar    1  UNL1        0.0000
     17 C          58.6861   87.2059    7.5896 C.ar    1  UNL1        0.0000
     18 C          59.5857   86.9308    8.7580 C.ar    1  UNL1        0.0001
     19 C          62.0042   86.2779   10.5935 C.ar    1  UNL1        0.1407
     20 N          61.7164   85.4476   11.8092 N.ar    1  UNL1       -0.2254
     21 C          62.4081   84.1271   11.6433 C.ar    1  UNL1        0.1189
     22 C          63.1235   84.1411   10.3250 C.ar    1  UNL1        0.0945
     23 N          62.8739   85.4703    9.6762 N.ar    1  UNL1       -0.3361
     24 H          63.2202   85.7615    8.8018 H       1  UNL1        0.1674
     25 N          65.0494   86.5042   14.9112 N.pl3   1  UNL1       -0.3339
     26 H          65.8899   86.6373   15.4063 H       1  UNL1        0.1468
     27 N          63.3178   82.3724   14.4874 N.3     1  UNL1       -0.2726
     28 C          62.6367   83.3852   15.3593 C.3     1  UNL1        0.0738
     29 C          63.2138   84.7625   15.5006 C.3     1  UNL1        0.0368
     30 C          64.4722   85.1270   14.7700 C.3     1  UNL1        0.0718
     31 C          65.1534   84.1141   13.8981 C.3     1  UNL1        0.0368
     32 C          64.5762   82.7368   13.7568 C.3     1  UNL1        0.0738
     33 C          61.2913   80.8211   14.0010 C.3     1  UNL1        0.0188
     34 C          62.7407   80.9951   14.3462 C.3     1  UNL1        0.0721
@<TRIPOS>BOND
     1    33    34    1
     2    34    27    1
     3    27    28    1
     4    28    29    1
     5    29    30    1
     6    30    25    1
     7    25     1    1
     8     1     2   ar
     9     2     3   ar
    10     3     4   ar
    11     4     5   ar
    12     5     6   ar
    13     5     7    1
    14     7     8    2
    15     8    13    1
    16    13    14   ar
    17    14    15   ar
    18    15    16   ar
    19    16    17   ar
    20    17    18   ar
    21     8    19    1
    22    19    20   ar
    23    20    21   ar
    24    21    22   ar
    25    22    23   ar
    26     7     9    1
    27     9    10    2
    28     9    11   am
    29    30    31    1
    30    31    32    1
    31    32    27    1
    32     6     1   ar
    33    18    13   ar
    34    23    19   ar
    35    11     4    1
    36    25    26    1
    37    23    24    1
    38    11    12    1
