@<TRIPOS>MOLECULE
*****
 29 31 0 0 0
SMALL
GASTEIGER

@<TRIPOS>ATOM
      1 C          63.5917   87.3210   13.4024 C.ar    1  UNL1        0.0000
      2 C          64.1281   86.5719   14.5860 C.ar    1  UNL1       -0.0002
      3 C          63.8486   85.1057   14.7352 C.ar    1  UNL1       -0.0017
      4 C          63.0327   84.3887   13.7006 C.ar    1  UNL1        0.0070
      5 C          62.4963   85.1379   12.5170 C.ar    1  UNL1       -0.0017
      6 C          62.7759   86.6040   12.3678 C.ar    1  UNL1       -0.0002
      7 C          64.9509   90.9743   14.1481 C.ar    1  UNL1        0.0503
      8 C          64.4303   91.7195   12.9549 C.ar    1  UNL1        0.0147
      9 C          63.6302   90.9985   11.9109 C.ar    1  UNL1        0.0013
     10 C          63.3506   89.5324   12.0600 C.ar    1  UNL1        0.0001
     11 C          63.8713   88.7872   13.2532 C.ar    1  UNL1        0.0012
     12 C          64.6714   89.5082   14.2972 C.ar    1  UNL1        0.0147
     13 C          67.9842   92.7708   15.9706 C.3     1  UNL1        0.0949
     14 C          67.1841   92.0498   14.9266 C.2     1  UNL1        0.2266
     15 O          67.8171   91.6834   13.6169 O.2     1  UNL1       -0.2748
     16 N          65.7510   91.6953   15.1921 N.am    1  UNL1       -0.2839
     17 H          65.3356   91.9358   16.0516 H       1  UNL1        0.1549
     18 C          62.7532   82.9226   13.8498 C.3     1  UNL1        0.1410
     19 O          62.1644   83.1728   15.2064 O.3     1  UNL1       -0.3771
     20 H          62.2079   84.1206   15.4080 H       1  UNL1        0.2112
     21 C          63.3420   82.6723   12.4931 C.ar    1  UNL1        0.0825
     22 C          64.6946   83.1189   12.0229 C.ar    1  UNL1        0.1157
     23 N          64.8702   82.6541   10.6075 N.ar    1  UNL1       -0.2228
     24 C          63.6260   81.9202   10.2030 C.ar    1  UNL1        0.1749
     25 N          62.6816   81.9315   11.3683 N.ar    1  UNL1       -0.3361
     26 H          61.7856   81.5241   11.3909 H       1  UNL1        0.1673
     27 C          62.4737   81.4564   13.9989 C.3     1  UNL1        0.0340
     28 C          61.0592   80.9705   14.1142 C.3     1  UNL1        0.0031
     29 C          63.6086   80.4761   14.0327 C.3     1  UNL1        0.0031
@<TRIPOS>BOND
     1    13    14    1
     2    14    15    2
     3    14    16   am
     4    16     7    1
     5     7     8   ar
     6     8     9   ar
     7     9    10   ar
     8    10    11   ar
     9    11     1    1
    10     1     2   ar
    11     2     3   ar
    12     3     4   ar
    13     4    18    1
    14    18    19    1
    15    18    21    1
    16    21    22   ar
    17    22    23   ar
    18    23    24   ar
    19    24    25   ar
    20    18    27    1
    21    27    28    1
    22    27    29    1
    23     4     5   ar
    24     5     6   ar
    25    11    12   ar
    26    12     7   ar
    27     6     1   ar
    28    25    21   ar
    29    16    17    1
    30    19    20    1
    31    25    26    1
@<TRIPOS>MOLECULE
*****
 29 31 0 0 0
SMALL
GASTEIGER

@<TRIPOS>ATOM
      1 C          61.9319   88.8906   10.4352 C.ar    1  UNL1        0.0000
      2 C          62.5646   88.0110   11.4725 C.ar    1  UNL1       -0.0002
      3 C          63.4138   88.6152   12.5514 C.ar    1  UNL1       -0.0017
      4 C          63.6303   90.0989   12.5929 C.ar    1  UNL1        0.0070
      5 C          62.9976   90.9785   11.5555 C.ar    1  UNL1       -0.0017
      6 C          62.1484   90.3743   10.4767 C.ar    1  UNL1       -0.0002
      7 C          59.2837   88.5443    7.4997 C.ar    1  UNL1        0.0503
      8 C          59.3843   87.0784    7.1986 C.ar    1  UNL1        0.0147
      9 C          60.3341   86.2164    7.9764 C.ar    1  UNL1        0.0013
     10 C          61.1833   86.8205    9.0552 C.ar    1  UNL1        0.0001
     11 C          61.0827   88.2865    9.3563 C.ar    1  UNL1        0.0012
     12 C          60.1329   89.1484    8.5786 C.ar    1  UNL1        0.0147
     13 C          57.9123   91.2521    4.9429 C.3     1  UNL1        0.0949
     14 C          58.8621   90.3902    5.7206 C.2     1  UNL1        0.2266
     15 O          60.3404   90.5122    5.4970 O.2     1  UNL1       -0.2748
     16 N          58.3338   89.4063    6.7220 N.am    1  UNL1       -0.2839
     17 H          57.3636   89.3262    6.8688 H       1  UNL1        0.1549
     18 C          64.4795   90.7030   13.6717 C.3     1  UNL1        0.1410
     19 O          65.0326   91.6879   12.6848 O.3     1  UNL1       -0.3771
     20 H          64.6341   91.5318   11.8143 H       1  UNL1        0.2112
     21 C          63.9264   89.7182   14.6586 C.ar    1  UNL1        0.0825
     22 C          64.4751   88.3512   14.9421 C.ar    1  UNL1        0.1157
     23 N          63.6152   87.7155   15.9941 N.ar    1  UNL1       -0.2228
     24 C          62.5350   88.6897   16.3607 C.ar    1  UNL1        0.1749
     25 N          62.7273   89.9273   15.5354 N.ar    1  UNL1       -0.3361
     26 H          62.1652   90.7351   15.5641 H       1  UNL1        0.1673
     27 C          65.3287   91.3072   14.7505 C.3     1  UNL1        0.0340
     28 C          66.8223   91.3149   14.6132 C.3     1  UNL1        0.0031
     29 C          64.6841   91.9037   15.9666 C.3     1  UNL1        0.0031
@<TRIPOS>BOND
     1    13    14    1
     2    14    15    2
     3    14    16   am
     4    16     7    1
     5     7     8   ar
     6     8     9   ar
     7     9    10   ar
     8    10    11   ar
     9    11     1    1
    10     1     2   ar
    11     2     3   ar
    12     3     4   ar
    13     4    18    1
    14    18    19    1
    15    18    21    1
    16    21    22   ar
    17    22    23   ar
    18    23    24   ar
    19    24    25   ar
    20    18    27    1
    21    27    28    1
    22    27    29    1
    23     4     5   ar
    24     5     6   ar
    25    11    12   ar
    26    12     7   ar
    27     6     1   ar
    28    25    21   ar
    29    16    17    1
    30    19    20    1
    31    25    26    1
@<TRIPOS>MOLECULE
*****
 29 31 0 0 0
SMALL
GASTEIGER

@<TRIPOS>ATOM
      1 C          62.5287   89.5628   10.5629 C.ar    1  UNL1        0.0000
      2 C          63.0136   90.9141   10.1284 C.ar    1  UNL1       -0.0002
      3 C          63.8945   91.7220   11.0348 C.ar    1  UNL1       -0.0017
      4 C          64.2905   91.1784   12.3756 C.ar    1  UNL1        0.0070
      5 C          63.8056   89.8270   12.8100 C.ar    1  UNL1       -0.0017
      6 C          62.9247   89.0192   11.9037 C.ar    1  UNL1       -0.0002
      7 C          59.6884   88.6220    7.9557 C.ar    1  UNL1        0.0503
      8 C          59.8861   87.1393    7.8438 C.ar    1  UNL1        0.0147
      9 C          60.9647   86.4644    8.6383 C.ar    1  UNL1        0.0013
     10 C          61.8456   87.2722    9.5446 C.ar    1  UNL1        0.0001
     11 C          61.6478   88.7549    9.6565 C.ar    1  UNL1        0.0012
     12 C          60.5692   89.4298    8.8620 C.ar    1  UNL1        0.0147
     13 C          57.8923   90.8412    5.1990 C.3     1  UNL1        0.0949
     14 C          58.9709   90.1664    5.9935 C.2     1  UNL1        0.2266
     15 O          60.4107   90.3610    5.6202 O.2     1  UNL1       -0.2748
     16 N          58.6098   89.2969    7.1612 N.am    1  UNL1       -0.2839
     17 H          57.6649   89.1691    7.4062 H       1  UNL1        0.1549
     18 C          65.1713   91.9862   13.2820 C.3     1  UNL1        0.1410
     19 O          64.3485   91.5600   14.4615 O.3     1  UNL1       -0.3771
     20 H          63.6341   90.9756   14.1631 H       1  UNL1        0.2112
     21 C          65.9941   92.4125   12.1024 C.ar    1  UNL1        0.0825
     22 C          67.3272   91.8494   11.7077 C.ar    1  UNL1        0.1157
     23 N          67.7853   92.5656   10.4717 N.ar    1  UNL1       -0.2228
     24 C          66.7352   93.5713   10.1027 C.ar    1  UNL1        0.1749
     25 N          65.6283   93.4766   11.1105 N.ar    1  UNL1       -0.3361
     26 H          64.8060   94.0179   11.1194 H       1  UNL1        0.1673
     27 C          66.0522   92.7940   14.1883 C.3     1  UNL1        0.0340
     28 C          66.4739   94.1766   13.7875 C.3     1  UNL1        0.0031
     29 C          66.5113   92.2192   15.4956 C.3     1  UNL1        0.0031
@<TRIPOS>BOND
     1    13    14    1
     2    14    15    2
     3    14    16   am
     4    16     7    1
     5     7     8   ar
     6     8     9   ar
     7     9    10   ar
     8    10    11   ar
     9    11     1    1
    10     1     2   ar
    11     2     3   ar
    12     3     4   ar
    13     4    18    1
    14    18    19    1
    15    18    21    1
    16    21    22   ar
    17    22    23   ar
    18    23    24   ar
    19    24    25   ar
    20    18    27    1
    21    27    28    1
    22    27    29    1
    23     4     5   ar
    24     5     6   ar
    25    11    12   ar
    26    12     7   ar
    27     6     1   ar
    28    25    21   ar
    29    16    17    1
    30    19    20    1
    31    25    26    1
@<TRIPOS>MOLECULE
*****
 29 31 0 0 0
SMALL
GASTEIGER

@<TRIPOS>ATOM
      1 C          64.2839   89.1168   14.6401 C.ar    1  UNL1        0.0000
      2 C          65.3395   90.0354   15.1804 C.ar    1  UNL1       -0.0002
      3 C          65.8113   91.1999   14.3610 C.ar    1  UNL1       -0.0017
      4 C          65.2275   91.4457   13.0013 C.ar    1  UNL1        0.0070
      5 C          64.1719   90.5271   12.4610 C.ar    1  UNL1       -0.0017
      6 C          63.7001   89.3626   13.2804 C.ar    1  UNL1       -0.0002
      7 C          63.6808   85.3885   15.8593 C.ar    1  UNL1        0.0503
      8 C          62.8685   85.6233   17.0982 C.ar    1  UNL1        0.0147
      9 C          62.5280   87.0226   17.5178 C.ar    1  UNL1        0.0013
     10 C          62.9998   88.1871   16.6985 C.ar    1  UNL1        0.0001
     11 C          63.8121   87.9523   15.4596 C.ar    1  UNL1        0.0012
     12 C          64.1526   86.5530   15.0400 C.ar    1  UNL1        0.0147
     13 C          63.7275   81.9986   13.7963 C.3     1  UNL1        0.0949
     14 C          63.3870   83.3979   14.2159 C.2     1  UNL1        0.2266
     15 O          62.4120   84.2058   13.4116 O.2     1  UNL1       -0.2748
     16 N          64.0213   83.9892   15.4397 N.am    1  UNL1       -0.2839
     17 H          64.6612   83.4590   15.9676 H       1  UNL1        0.1549
     18 C          65.6993   92.6102   12.1819 C.3     1  UNL1        0.1410
     19 O          64.6431   92.3175   11.1578 O.3     1  UNL1       -0.3771
     20 H          64.1278   91.5444   11.4367 H       1  UNL1        0.2112
     21 C          66.7555   92.9029   13.2059 C.ar    1  UNL1        0.0825
     22 C          68.1353   92.3156   13.2422 C.ar    1  UNL1        0.1157
     23 N          68.8499   92.8841   14.4323 N.ar    1  UNL1       -0.2228
     24 C          67.9117   93.8227   15.1315 C.ar    1  UNL1        0.1749
     25 N          66.6174   93.8343   14.3737 N.ar    1  UNL1       -0.3361
     26 H          65.8176   94.3608   14.6024 H       1  UNL1        0.1673
     27 C          66.1710   93.7746   11.3625 C.3     1  UNL1        0.0340
     28 C          66.7909   93.5424   10.0164 C.3     1  UNL1        0.0031
     29 C          66.0230   95.1714   11.8891 C.3     1  UNL1        0.0031
@<TRIPOS>BOND
     1    13    14    1
     2    14    15    2
     3    14    16   am
     4    16     7    1
     5     7     8   ar
     6     8     9   ar
     7     9    10   ar
     8    10    11   ar
     9    11     1    1
    10     1     2   ar
    11     2     3   ar
    12     3     4   ar
    13     4    18    1
    14    18    19    1
    15    18    21    1
    16    21    22   ar
    17    22    23   ar
    18    23    24   ar
    19    24    25   ar
    20    18    27    1
    21    27    28    1
    22    27    29    1
    23     4     5   ar
    24     5     6   ar
    25    11    12   ar
    26    12     7   ar
    27     6     1   ar
    28    25    21   ar
    29    16    17    1
    30    19    20    1
    31    25    26    1
@<TRIPOS>MOLECULE
*****
 29 31 0 0 0
SMALL
GASTEIGER

@<TRIPOS>ATOM
      1 C          62.9505   89.5099   11.6740 C.ar    1  UNL1        0.0000
      2 C          63.5432   89.0200   12.9619 C.ar    1  UNL1       -0.0002
      3 C          64.4808   89.8972   13.7376 C.ar    1  UNL1       -0.0017
      4 C          64.8256   91.2642   13.2254 C.ar    1  UNL1        0.0070
      5 C          64.2329   91.7540   11.9374 C.ar    1  UNL1       -0.0017
      6 C          63.2953   90.8769   11.1618 C.ar    1  UNL1       -0.0002
      7 C          61.6178   86.7753    9.1253 C.ar    1  UNL1        0.0503
      8 C          60.1379   86.8786    9.3470 C.ar    1  UNL1        0.0147
      9 C          59.5955   87.8589   10.3444 C.ar    1  UNL1        0.0013
     10 C          60.5330   88.7360   11.1200 C.ar    1  UNL1        0.0001
     11 C          62.0129   88.6328   10.8983 C.ar    1  UNL1        0.0012
     12 C          62.5553   87.6524    9.9010 C.ar    1  UNL1        0.0147
     13 C          61.8022   84.2408    6.0770 C.3     1  UNL1        0.0949
     14 C          61.2598   85.2211    7.0744 C.2     1  UNL1        0.2266
     15 O          59.8170   85.6276    7.0182 O.2     1  UNL1       -0.2748
     16 N          62.1601   85.7950    8.1280 N.am    1  UNL1       -0.2839
     17 H          63.1071   85.5282    8.1648 H       1  UNL1        0.1549
     18 C          65.7632   92.1413   14.0010 C.3     1  UNL1        0.1410
     19 O          64.9223   91.9542   15.2289 O.3     1  UNL1       -0.3771
     20 H          64.1695   91.3790   15.0207 H       1  UNL1        0.2112
     21 C          66.6040   92.3284   12.7730 C.ar    1  UNL1        0.0825
     22 C          67.9189   91.6623   12.4949 C.ar    1  UNL1        0.1157
     23 N          68.4052   92.1367   11.1574 N.ar    1  UNL1       -0.2228
     24 C          67.3907   93.0960   10.6090 C.ar    1  UNL1        0.1749
     25 N          66.2775   93.2144   11.6074 N.ar    1  UNL1       -0.3361
     26 H          65.4738   93.7753   11.5142 H       1  UNL1        0.1673
     27 C          66.7007   93.0184   14.7766 C.3     1  UNL1        0.0340
     28 C          66.9625   94.4235   14.3216 C.3     1  UNL1        0.0031
     29 C          67.3766   92.4903   16.0073 C.3     1  UNL1        0.0031
@<TRIPOS>BOND
     1    13    14    1
     2    14    15    2
     3    14    16   am
     4    16     7    1
     5     7     8   ar
     6     8     9   ar
     7     9    10   ar
     8    10    11   ar
     9    11     1    1
    10     1     2   ar
    11     2     3   ar
    12     3     4   ar
    13     4    18    1
    14    18    19    1
    15    18    21    1
    16    21    22   ar
    17    22    23   ar
    18    23    24   ar
    19    24    25   ar
    20    18    27    1
    21    27    28    1
    22    27    29    1
    23     4     5   ar
    24     5     6   ar
    25    11    12   ar
    26    12     7   ar
    27     6     1   ar
    28    25    21   ar
    29    16    17    1
    30    19    20    1
    31    25    26    1
@<TRIPOS>MOLECULE
*****
 29 31 0 0 0
SMALL
GASTEIGER

@<TRIPOS>ATOM
      1 C          63.8044   87.4761   14.1149 C.ar    1  UNL1        0.0000
      2 C          63.1618   86.8768   12.8993 C.ar    1  UNL1       -0.0002
      3 C          62.8625   85.4076   12.8563 C.ar    1  UNL1       -0.0017
      4 C          63.2058   84.5376   14.0291 C.ar    1  UNL1        0.0070
      5 C          63.8485   85.1370   15.2448 C.ar    1  UNL1       -0.0017
      6 C          64.1477   86.6062   15.2877 C.ar    1  UNL1       -0.0002
      7 C          64.5931   91.1788   12.9242 C.ar    1  UNL1        0.0503
      8 C          64.7022   91.8837   14.2437 C.ar    1  UNL1        0.0147
      9 C          64.5119   91.1195   15.5203 C.ar    1  UNL1        0.0013
     10 C          64.2127   89.6503   15.4774 C.ar    1  UNL1        0.0001
     11 C          64.1036   88.9454   14.1579 C.ar    1  UNL1        0.0012
     12 C          64.2939   89.7096   12.8813 C.ar    1  UNL1        0.0147
     13 C          66.2887   93.3680   10.0812 C.3     1  UNL1        0.0949
     14 C          66.0984   92.6038   11.3578 C.2     1  UNL1        0.2266
     15 O          67.2234   92.5002   12.3447 O.2     1  UNL1       -0.2748
     16 N          64.7834   91.9431   11.6476 N.am    1  UNL1       -0.2839
     17 H          64.0451   92.0110   10.9999 H       1  UNL1        0.1549
     18 C          62.9066   83.0685   13.9862 C.3     1  UNL1        0.1410
     19 O          62.3829   83.1341   15.3902 O.3     1  UNL1       -0.3771
     20 H          62.4525   84.0440   15.7190 H       1  UNL1        0.2112
     21 C          63.4303   83.0028   12.5821 C.ar    1  UNL1        0.0825
     22 C          64.8614   83.1723   12.1661 C.ar    1  UNL1        0.1157
     23 N          64.9304   83.0304   10.6743 N.ar    1  UNL1       -0.2228
     24 C          63.5419   82.7731   10.1685 C.ar    1  UNL1        0.1749
     25 N          62.6148   82.7561   11.3475 N.ar    1  UNL1       -0.3361
     26 H          61.6418   82.6088   11.3165 H       1  UNL1        0.1673
     27 C          62.6073   81.5993   13.9433 C.3     1  UNL1        0.0340
     28 C          63.7225   80.6115   13.7680 C.3     1  UNL1        0.0031
     29 C          61.1929   81.1178   14.0756 C.3     1  UNL1        0.0031
@<TRIPOS>BOND
     1    13    14    1
     2    14    15    2
     3    14    16   am
     4    16     7    1
     5     7     8   ar
     6     8     9   ar
     7     9    10   ar
     8    10    11   ar
     9    11     1    1
    10     1     2   ar
    11     2     3   ar
    12     3     4   ar
    13     4    18    1
    14    18    19    1
    15    18    21    1
    16    21    22   ar
    17    22    23   ar
    18    23    24   ar
    19    24    25   ar
    20    18    27    1
    21    27    28    1
    22    27    29    1
    23     4     5   ar
    24     5     6   ar
    25    11    12   ar
    26    12     7   ar
    27     6     1   ar
    28    25    21   ar
    29    16    17    1
    30    19    20    1
    31    25    26    1
@<TRIPOS>MOLECULE
*****
 29 31 0 0 0
SMALL
GASTEIGER

@<TRIPOS>ATOM
      1 C          63.2337   89.3954   12.0662 C.ar    1  UNL1        0.0000
      2 C          63.8597   89.0922   13.3952 C.ar    1  UNL1       -0.0002
      3 C          64.7487   90.1050   14.0541 C.ar    1  UNL1       -0.0017
      4 C          65.0117   91.4209   13.3840 C.ar    1  UNL1        0.0070
      5 C          64.3856   91.7241   12.0549 C.ar    1  UNL1       -0.0017
      6 C          63.4967   90.7114   11.3961 C.ar    1  UNL1       -0.0002
      7 C          61.8228   85.9159   10.7809 C.ar    1  UNL1        0.0503
      8 C          60.5669   86.3572   10.0897 C.ar    1  UNL1        0.0147
      9 C          60.1999   87.8112   10.0573 C.ar    1  UNL1        0.0013
     10 C          61.0888   88.8239   10.7162 C.ar    1  UNL1        0.0001
     11 C          62.3447   88.3827   11.4074 C.ar    1  UNL1        0.0012
     12 C          62.7118   86.9286   11.4397 C.ar    1  UNL1        0.0147
     13 C          62.8676   82.3416   12.1531 C.3     1  UNL1        0.0949
     14 C          62.5005   83.7956   12.1207 C.2     1  UNL1        0.2266
     15 O          62.4441   84.5835   13.3960 O.2     1  UNL1       -0.2748
     16 N          62.1899   84.4618   10.8132 N.am    1  UNL1       -0.2839
     17 H          62.2269   83.9447    9.9763 H       1  UNL1        0.1549
     18 C          65.9006   92.4337   14.0428 C.3     1  UNL1        0.1410
     19 O          65.0202   92.4165   15.2571 O.3     1  UNL1       -0.3771
     20 H          64.2884   91.7954   15.1171 H       1  UNL1        0.2112
     21 C          66.7810   92.4508   12.8285 C.ar    1  UNL1        0.0825
     22 C          68.0503   91.6720   12.6486 C.ar    1  UNL1        0.1157
     23 N          68.6005   91.9896   11.2897 N.ar    1  UNL1       -0.2228
     24 C          67.6712   92.9648   10.6298 C.ar    1  UNL1        0.1749
     25 N          66.5468   93.2499   11.5807 N.ar    1  UNL1       -0.3361
     26 H          65.7881   93.8551   11.4151 H       1  UNL1        0.1673
     27 C          66.7896   93.4464   14.7016 C.3     1  UNL1        0.0340
     28 C          67.5156   93.0970   15.9668 C.3     1  UNL1        0.0031
     29 C          66.9525   94.8087   14.0952 C.3     1  UNL1        0.0031
@<TRIPOS>BOND
     1    13    14    1
     2    14    15    2
     3    14    16   am
     4    16     7    1
     5     7     8   ar
     6     8     9   ar
     7     9    10   ar
     8    10    11   ar
     9    11     1    1
    10     1     2   ar
    11     2     3   ar
    12     3     4   ar
    13     4    18    1
    14    18    19    1
    15    18    21    1
    16    21    22   ar
    17    22    23   ar
    18    23    24   ar
    19    24    25   ar
    20    18    27    1
    21    27    28    1
    22    27    29    1
    23     4     5   ar
    24     5     6   ar
    25    11    12   ar
    26    12     7   ar
    27     6     1   ar
    28    25    21   ar
    29    16    17    1
    30    19    20    1
    31    25    26    1
@<TRIPOS>MOLECULE
*****
 29 31 0 0 0
SMALL
GASTEIGER

@<TRIPOS>ATOM
      1 C          63.0554   87.5722   12.1266 C.ar    1  UNL1        0.0000
      2 C          62.2206   86.6036   11.3426 C.ar    1  UNL1       -0.0002
      3 C          62.0861   85.1831   11.8056 C.ar    1  UNL1       -0.0017
      4 C          62.7865   84.7314   13.0527 C.ar    1  UNL1        0.0070
      5 C          63.6214   85.7000   13.8368 C.ar    1  UNL1       -0.0017
      6 C          63.7558   87.1204   13.3737 C.ar    1  UNL1       -0.0002
      7 C          64.3068   91.3295   11.8677 C.ar    1  UNL1        0.0503
      8 C          63.4589   91.8333   10.7376 C.ar    1  UNL1        0.0147
      9 C          62.4766   90.9169   10.0705 C.ar    1  UNL1        0.0013
     10 C          62.3420   89.4965   10.5335 C.ar    1  UNL1        0.0001
     11 C          63.1899   88.9926   11.6636 C.ar    1  UNL1        0.0012
     12 C          64.1723   89.9091   12.3307 C.ar    1  UNL1        0.0147
     13 C          66.3014   93.2689   14.6978 C.3     1  UNL1        0.0949
     14 C          65.3191   92.3525   14.0307 C.2     1  UNL1        0.2266
     15 O          64.3666   91.5425   14.8595 O.2     1  UNL1       -0.2748
     16 N          65.2891   92.2459   12.5348 N.am    1  UNL1       -0.2839
     17 H          65.9142   92.7775   11.9908 H       1  UNL1        0.1549
     18 C          62.6521   83.3110   13.5158 C.3     1  UNL1        0.1410
     19 O          62.0254   83.7867   14.7929 O.3     1  UNL1       -0.3771
     20 H          61.9723   84.7552   14.7858 H       1  UNL1        0.2112
     21 C          63.2787   82.8353   12.2387 C.ar    1  UNL1        0.0825
     22 C          62.6913   81.8354   11.2873 C.ar    1  UNL1        0.1157
     23 N          63.6525   81.6581   10.1493 N.ar    1  UNL1       -0.2228
     24 C          64.8339   82.5486   10.3974 C.ar    1  UNL1        0.1749
     25 N          64.6029   83.2761   11.6887 N.ar    1  UNL1       -0.3361
     26 H          65.2132   83.9283   12.1026 H       1  UNL1        0.1673
     27 C          62.5176   81.8907   13.9788 C.3     1  UNL1        0.0340
     28 C          63.7399   81.0373   14.1458 C.3     1  UNL1        0.0031
     29 C          61.1608   81.3235   14.2750 C.3     1  UNL1        0.0031
@<TRIPOS>BOND
     1    13    14    1
     2    14    15    2
     3    14    16   am
     4    16     7    1
     5     7     8   ar
     6     8     9   ar
     7     9    10   ar
     8    10    11   ar
     9    11     1    1
    10     1     2   ar
    11     2     3   ar
    12     3     4   ar
    13     4    18    1
    14    18    19    1
    15    18    21    1
    16    21    22   ar
    17    22    23   ar
    18    23    24   ar
    19    24    25   ar
    20    18    27    1
    21    27    28    1
    22    27    29    1
    23     4     5   ar
    24     5     6   ar
    25    11    12   ar
    26    12     7   ar
    27     6     1   ar
    28    25    21   ar
    29    16    17    1
    30    19    20    1
    31    25    26    1
@<TRIPOS>MOLECULE
*****
 29 31 0 0 0
SMALL
GASTEIGER

@<TRIPOS>ATOM
      1 C          63.2876   88.4208   12.5471 C.ar    1  UNL1        0.0000
      2 C          63.9348   87.9720   13.8237 C.ar    1  UNL1       -0.0002
      3 C          64.5097   88.9845   14.7695 C.ar    1  UNL1       -0.0017
      4 C          64.4375   90.4457   14.4386 C.ar    1  UNL1        0.0070
      5 C          63.7903   90.8945   13.1619 C.ar    1  UNL1       -0.0017
      6 C          63.2154   89.8821   12.2162 C.ar    1  UNL1       -0.0002
      7 C          61.4277   86.8479    9.4139 C.ar    1  UNL1        0.0503
      8 C          61.5628   85.3836    9.7098 C.ar    1  UNL1        0.0147
      9 C          62.2728   84.9317   10.9515 C.ar    1  UNL1        0.0013
     10 C          62.8477   85.9441   11.8972 C.ar    1  UNL1        0.0001
     11 C          62.7127   87.4084   11.6013 C.ar    1  UNL1        0.0012
     12 C          62.0027   87.8603   10.3597 C.ar    1  UNL1        0.0147
     13 C          59.2424   89.0418    6.9317 C.3     1  UNL1        0.0949
     14 C          59.9524   88.5899    8.1734 C.2     1  UNL1        0.2266
     15 O          59.8972   89.4281    9.4161 O.2     1  UNL1       -0.2748
     16 N          60.7177   87.2998    8.1723 N.am    1  UNL1       -0.2839
     17 H          60.7540   86.7497    7.3567 H       1  UNL1        0.1549
     18 C          65.0124   91.4582   15.3842 C.3     1  UNL1        0.1410
     19 O          64.0231   91.0415   16.4318 O.3     1  UNL1       -0.3771
     20 H          63.4593   90.3343   16.0811 H       1  UNL1        0.2112
     21 C          66.0018   91.8749   14.3366 C.ar    1  UNL1        0.0825
     22 C          67.3140   91.2080   14.0481 C.ar    1  UNL1        0.1157
     23 N          67.9759   91.9527   12.9267 N.ar    1  UNL1       -0.2228
     24 C          67.0726   93.0799   12.5222 C.ar    1  UNL1        0.1749
     25 N          65.8526   93.0318   13.3935 N.ar    1  UNL1       -0.3361
     26 H          65.0881   93.6509   13.3534 H       1  UNL1        0.1673
     27 C          65.5874   92.4706   16.3299 C.3     1  UNL1        0.0340
     28 C          67.0091   92.9220   16.1720 C.3     1  UNL1        0.0031
     29 C          64.7405   93.0318   17.4336 C.3     1  UNL1        0.0031
@<TRIPOS>BOND
     1    13    14    1
     2    14    15    2
     3    14    16   am
     4    16     7    1
     5     7     8   ar
     6     8     9   ar
     7     9    10   ar
     8    10    11   ar
     9    11     1    1
    10     1     2   ar
    11     2     3   ar
    12     3     4   ar
    13     4    18    1
    14    18    19    1
    15    18    21    1
    16    21    22   ar
    17    22    23   ar
    18    23    24   ar
    19    24    25   ar
    20    18    27    1
    21    27    28    1
    22    27    29    1
    23     4     5   ar
    24     5     6   ar
    25    11    12   ar
    26    12     7   ar
    27     6     1   ar
    28    25    21   ar
    29    16    17    1
    30    19    20    1
    31    25    26    1
