@<TRIPOS>MOLECULE
*****
 27 31 0 0 0
SMALL
GASTEIGER

@<TRIPOS>ATOM
      1 C          64.1986   91.2765   16.0443 C.3     1  UNL1        0.2354
      2 O          64.8289   92.5489   16.5277 O.3     1  UNL1       -0.3305
      3 C          65.9905   92.8605   15.6313 C.3     1  UNL1        0.1452
      4 C          66.0781   91.7807   14.5938 C.3     1  UNL1        0.0393
      5 C          64.9707   90.8017   14.8491 C.3     1  UNL1        0.0636
      6 C          62.9960   89.1075   16.8185 C.3     1  UNL1        0.1768
      7 O          63.0057   90.5980   16.6498 O.3     1  UNL1       -0.3278
      8 C          67.0947   91.6949   13.4942 C.3     1  UNL1        0.0291
      9 C          66.9870   92.5976   12.3010 C.ar    1  UNL1       -0.0189
     10 C          67.5453   92.1627   10.9786 C.ar    1  UNL1       -0.0009
     11 C          67.4376   93.0653    9.7855 C.ar    1  UNL1        0.0399
     12 C          66.7714   94.4030    9.9149 C.ar    1  UNL1        0.1764
     13 C          66.2130   94.8381   11.2373 C.ar    1  UNL1        0.1761
     14 C          66.3207   93.9354   12.4305 C.ar    1  UNL1        0.0359
     15 O          65.6154   96.2027   11.0619 O.3     1  UNL1       -0.4346
     16 C          65.8045   96.6110    9.6310 C.3     1  UNL1        0.4294
     17 O          66.5190   95.4988    8.9221 O.3     1  UNL1       -0.4346
     18 C          64.6854   89.5650   14.0495 C.3     1  UNL1        0.0316
     19 C          63.8005   89.6410   12.8407 C.ar    1  UNL1       -0.0188
     20 C          63.6357   90.9419   12.1125 C.ar    1  UNL1       -0.0009
     21 C          62.7509   91.0179   10.9037 C.ar    1  UNL1        0.0399
     22 C          62.0308   89.7929   10.4231 C.ar    1  UNL1        0.1764
     23 C          62.1957   88.4919   11.1513 C.ar    1  UNL1        0.1761
     24 C          63.0805   88.4160   12.3601 C.ar    1  UNL1        0.0359
     25 O          61.3654   87.4590   10.4487 O.3     1  UNL1       -0.4346
     26 C          60.6874   88.1216    9.2862 C.3     1  UNL1        0.4294
     27 O          61.0986   89.5640    9.2703 O.3     1  UNL1       -0.4346
@<TRIPOS>BOND
     1     6     7    1
     2     1     7    1
     3     1     2    1
     4     2     3    1
     5     3     4    1
     6     4     8    1
     7     8     9    1
     8     9    10   ar
     9    10    11   ar
    10    11    12   ar
    11    12    13   ar
    12    13    14   ar
    13    13    15    1
    14    15    16    1
    15    16    17    1
    16     4     5    1
    17     5    18    1
    18    18    19    1
    19    19    20   ar
    20    20    21   ar
    21    21    22   ar
    22    22    23   ar
    23    23    24   ar
    24    23    25    1
    25    25    26    1
    26    26    27    1
    27     5     1    1
    28    24    19   ar
    29    14     9   ar
    30    27    22    1
    31    17    12    1
@<TRIPOS>MOLECULE
*****
 27 31 0 0 0
SMALL
GASTEIGER

@<TRIPOS>ATOM
      1 C          60.4925   86.4195    8.0928 C.3     1  UNL1        0.2354
      2 O          61.0334   85.5733    6.9786 O.3     1  UNL1       -0.3305
      3 C          62.2572   84.8684    7.4840 C.3     1  UNL1        0.1452
      4 C          62.4727   85.2789    8.9105 C.3     1  UNL1        0.0393
      5 C          61.3821   86.2376    9.2868 C.3     1  UNL1        0.0636
      6 C          59.3502   88.6317    7.3501 C.3     1  UNL1        0.1768
      7 O          59.2758   87.2941    8.0250 O.3     1  UNL1       -0.3278
      8 C          63.5838   84.8127    9.8039 C.3     1  UNL1        0.0291
      9 C          63.2748   83.9811   11.0135 C.ar    1  UNL1       -0.0189
     10 C          63.0876   84.6393   12.3483 C.ar    1  UNL1       -0.0009
     11 C          62.7786   83.8078   13.5578 C.ar    1  UNL1        0.0399
     12 C          62.6568   82.3180   13.4326 C.ar    1  UNL1        0.1764
     13 C          62.8440   81.6597   12.0978 C.ar    1  UNL1        0.1761
     14 C          63.1530   82.4912   10.8883 C.ar    1  UNL1        0.0359
     15 O          62.6653   80.1817   12.2808 O.3     1  UNL1       -0.4346
     16 C          62.3676   79.9265   13.7286 C.3     1  UNL1        0.4294
     17 O          62.3624   81.2468   14.4405 O.3     1  UNL1       -0.4346
     18 C          61.2111   86.8983   10.6226 C.3     1  UNL1        0.0316
     19 C          61.9531   88.1644   10.9335 C.ar    1  UNL1       -0.0188
     20 C          61.8892   89.3236    9.9838 C.ar    1  UNL1       -0.0009
     21 C          62.6312   90.5896   10.2948 C.ar    1  UNL1        0.0399
     22 C          63.4369   90.6964   11.5555 C.ar    1  UNL1        0.1764
     23 C          63.5007   89.5372   12.5052 C.ar    1  UNL1        0.1761
     24 C          62.7588   88.2712   12.1942 C.ar    1  UNL1        0.0359
     25 O          64.3703   89.9327   13.6616 O.3     1  UNL1       -0.4346
     26 C          64.8439   91.3365   13.4266 C.3     1  UNL1        0.4294
     27 O          64.2670   91.8085   12.1249 O.3     1  UNL1       -0.4346
@<TRIPOS>BOND
     1     6     7    1
     2     1     7    1
     3     1     2    1
     4     2     3    1
     5     3     4    1
     6     4     8    1
     7     8     9    1
     8     9    10   ar
     9    10    11   ar
    10    11    12   ar
    11    12    13   ar
    12    13    14   ar
    13    13    15    1
    14    15    16    1
    15    16    17    1
    16     4     5    1
    17     5    18    1
    18    18    19    1
    19    19    20   ar
    20    20    21   ar
    21    21    22   ar
    22    22    23   ar
    23    23    24   ar
    24    23    25    1
    25    25    26    1
    26    26    27    1
    27     5     1    1
    28    24    19   ar
    29    14     9   ar
    30    27    22    1
    31    17    12    1
@<TRIPOS>MOLECULE
*****
 27 31 0 0 0
SMALL
GASTEIGER

@<TRIPOS>ATOM
      1 C          60.1069   89.0943    9.8121 C.3     1  UNL1        0.2354
      2 O          59.1232   87.9891    9.5648 O.3     1  UNL1       -0.3305
      3 C          59.8937   86.7581    9.1893 C.3     1  UNL1        0.1452
      4 C          61.3536   87.1025    9.2044 C.3     1  UNL1        0.0393
      5 C          61.4854   88.5462    9.5893 C.3     1  UNL1        0.0636
      6 C          59.2521   90.7847   11.5903 C.3     1  UNL1        0.1768
      7 O          59.7711   90.5004   10.2119 O.3     1  UNL1       -0.3278
      8 C          62.4833   86.1672    8.8899 C.3     1  UNL1        0.0291
      9 C          62.8894   85.1203    9.8845 C.ar    1  UNL1       -0.0189
     10 C          63.7159   83.9484    9.4448 C.ar    1  UNL1       -0.0009
     11 C          64.1219   82.9016   10.4393 C.ar    1  UNL1        0.0399
     12 C          63.7014   83.0266   11.8737 C.ar    1  UNL1        0.1764
     13 C          62.8748   84.1985   12.3136 C.ar    1  UNL1        0.1761
     14 C          62.4688   85.2454   11.3190 C.ar    1  UNL1        0.0359
     15 O          62.6114   84.0545   13.7832 O.3     1  UNL1       -0.4346
     16 C          63.2752   82.7936   14.2517 C.3     1  UNL1        0.4294
     17 O          63.9488   82.1583   13.0716 O.3     1  UNL1       -0.4346
     18 C          62.7700   89.3082    9.7273 C.3     1  UNL1        0.0316
     19 C          63.1519   89.9010   11.0513 C.ar    1  UNL1       -0.0188
     20 C          63.8610   91.2217   11.1051 C.ar    1  UNL1       -0.0009
     21 C          64.2429   91.8144   12.4290 C.ar    1  UNL1        0.0399
     22 C          63.9157   91.0865   13.6991 C.ar    1  UNL1        0.1764
     23 C          63.2066   89.7658   13.6452 C.ar    1  UNL1        0.1761
     24 C          62.8247   89.1731   12.3213 C.ar    1  UNL1        0.0359
     25 O          63.0175   89.2835   15.0529 O.3     1  UNL1       -0.4346
     26 C          63.6097   90.3061   15.9768 C.3     1  UNL1        0.4294
     27 O          64.1649   91.4204   15.1401 O.3     1  UNL1       -0.4346
@<TRIPOS>BOND
     1     6     7    1
     2     1     7    1
     3     1     2    1
     4     2     3    1
     5     3     4    1
     6     4     8    1
     7     8     9    1
     8     9    10   ar
     9    10    11   ar
    10    11    12   ar
    11    12    13   ar
    12    13    14   ar
    13    13    15    1
    14    15    16    1
    15    16    17    1
    16     4     5    1
    17     5    18    1
    18    18    19    1
    19    19    20   ar
    20    20    21   ar
    21    21    22   ar
    22    22    23   ar
    23    23    24   ar
    24    23    25    1
    25    25    26    1
    26    26    27    1
    27     5     1    1
    28    24    19   ar
    29    14     9   ar
    30    27    22    1
    31    17    12    1
@<TRIPOS>MOLECULE
*****
 27 31 0 0 0
SMALL
GASTEIGER

@<TRIPOS>ATOM
      1 C          61.1192   85.5813    7.4915 C.3     1  UNL1        0.2354
      2 O          59.7378   86.0280    7.1144 O.3     1  UNL1       -0.3305
      3 C          59.2356   86.9419    8.1926 C.3     1  UNL1        0.1452
      4 C          60.3066   87.0600    9.2361 C.3     1  UNL1        0.0393
      5 C          61.4707   86.2192    8.8029 C.3     1  UNL1        0.0636
      6 C          61.5429   84.1662    5.3542 C.3     1  UNL1        0.1768
      7 O          61.9952   84.6588    6.6969 O.3     1  UNL1       -0.3278
      8 C          60.2273   87.8758   10.4924 C.3     1  UNL1        0.0291
      9 C          61.2963   88.8816   10.8023 C.ar    1  UNL1       -0.0189
     10 C          61.6326   89.9500    9.8047 C.ar    1  UNL1       -0.0009
     11 C          62.7015   90.9557   10.1145 C.ar    1  UNL1        0.0399
     12 C          63.4341   90.8930   11.4220 C.ar    1  UNL1        0.1764
     13 C          63.0977   89.8245   12.4196 C.ar    1  UNL1        0.1761
     14 C          62.0288   88.8188   12.1098 C.ar    1  UNL1        0.0359
     15 O          63.9829   90.0120   13.6159 O.3     1  UNL1       -0.4346
     16 C          64.8664   91.1964   13.3577 C.3     1  UNL1        0.4294
     17 O          64.5272   91.7409   12.0018 O.3     1  UNL1       -0.4346
     18 C          62.7600   86.0465    9.5498 C.3     1  UNL1        0.0316
     19 C          63.0099   84.7928   10.3348 C.ar    1  UNL1       -0.0188
     20 C          63.7776   83.6618    9.7172 C.ar    1  UNL1       -0.0009
     21 C          64.0274   82.4082   10.5021 C.ar    1  UNL1        0.0399
     22 C          63.5097   82.2858   11.9046 C.ar    1  UNL1        0.1764
     23 C          62.7421   83.4168   12.5222 C.ar    1  UNL1        0.1761
     24 C          62.4922   84.6703   11.7372 C.ar    1  UNL1        0.0359
     25 O          62.3578   83.0107   13.9141 O.3     1  UNL1       -0.4346
     26 C          62.8879   81.6287   14.1568 C.3     1  UNL1        0.4294
     27 O          63.5999   81.1806   12.9149 O.3     1  UNL1       -0.4346
@<TRIPOS>BOND
     1     6     7    1
     2     1     7    1
     3     1     2    1
     4     2     3    1
     5     3     4    1
     6     4     8    1
     7     8     9    1
     8     9    10   ar
     9    10    11   ar
    10    11    12   ar
    11    12    13   ar
    12    13    14   ar
    13    13    15    1
    14    15    16    1
    15    16    17    1
    16     4     5    1
    17     5    18    1
    18    18    19    1
    19    19    20   ar
    20    20    21   ar
    21    21    22   ar
    22    22    23   ar
    23    23    24   ar
    24    23    25    1
    25    25    26    1
    26    26    27    1
    27     5     1    1
    28    24    19   ar
    29    14     9   ar
    30    27    22    1
    31    17    12    1
@<TRIPOS>MOLECULE
*****
 27 31 0 0 0
SMALL
GASTEIGER

@<TRIPOS>ATOM
      1 C          65.2686   92.0410   12.5247 C.3     1  UNL1        0.2354
      2 O          65.0697   92.0510   11.0380 O.3     1  UNL1       -0.3305
      3 C          63.7977   91.3157   10.7355 C.3     1  UNL1        0.1452
      4 C          63.2104   90.8514   12.0354 C.3     1  UNL1        0.0393
      5 C          64.1195   91.2996   13.1411 C.3     1  UNL1        0.0636
      6 C          67.5005   91.7967   13.8321 C.3     1  UNL1        0.1768
      7 O          66.4152   92.6632   13.2650 O.3     1  UNL1       -0.3278
      8 C          61.9376   90.0751   12.2004 C.3     1  UNL1        0.0291
      9 C          61.5932   88.9842   11.2300 C.ar    1  UNL1       -0.0189
     10 C          62.3453   87.6869   11.2621 C.ar    1  UNL1       -0.0009
     11 C          62.0009   86.5962   10.2917 C.ar    1  UNL1        0.0399
     12 C          60.9043   86.8028    9.2893 C.ar    1  UNL1        0.1764
     13 C          60.1521   88.1001    9.2573 C.ar    1  UNL1        0.1761
     14 C          60.4965   89.1909   10.2276 C.ar    1  UNL1        0.0359
     15 O          59.1284   88.0156    8.1642 O.3     1  UNL1       -0.4346
     16 C          59.2480   86.6659    7.5206 C.3     1  UNL1        0.4294
     17 O          60.3455   85.9164    8.2160 O.3     1  UNL1       -0.4346
     18 C          63.9153   91.0503   14.6061 C.3     1  UNL1        0.0316
     19 C          63.8041   89.6451   15.1194 C.ar    1  UNL1       -0.0188
     20 C          63.1615   89.3809   16.4488 C.ar    1  UNL1       -0.0009
     21 C          63.0503   87.9759   16.9619 C.ar    1  UNL1        0.0399
     22 C          63.5816   86.8350   16.1457 C.ar    1  UNL1        0.1764
     23 C          64.2242   87.0992   14.8164 C.ar    1  UNL1        0.1761
     24 C          64.3354   88.5043   14.3032 C.ar    1  UNL1        0.0359
     25 O          64.6534   85.7829   14.2392 O.3     1  UNL1       -0.4346
     26 C          64.2761   84.7052   15.2119 C.3     1  UNL1        0.4294
     27 O          63.6137   85.3554   16.3902 O.3     1  UNL1       -0.4346
@<TRIPOS>BOND
     1     6     7    1
     2     1     7    1
     3     1     2    1
     4     2     3    1
     5     3     4    1
     6     4     8    1
     7     8     9    1
     8     9    10   ar
     9    10    11   ar
    10    11    12   ar
    11    12    13   ar
    12    13    14   ar
    13    13    15    1
    14    15    16    1
    15    16    17    1
    16     4     5    1
    17     5    18    1
    18    18    19    1
    19    19    20   ar
    20    20    21   ar
    21    21    22   ar
    22    22    23   ar
    23    23    24   ar
    24    23    25    1
    25    25    26    1
    26    26    27    1
    27     5     1    1
    28    24    19   ar
    29    14     9   ar
    30    27    22    1
    31    17    12    1
@<TRIPOS>MOLECULE
*****
 27 31 0 0 0
SMALL
GASTEIGER

@<TRIPOS>ATOM
      1 C          65.4613   92.0805   12.3756 C.3     1  UNL1        0.2354
      2 O          65.3076   92.1323   10.8844 O.3     1  UNL1       -0.3305
      3 C          63.9750   91.5391   10.5348 C.3     1  UNL1        0.1452
      4 C          63.3051   91.1206   11.8100 C.3     1  UNL1        0.0393
      5 C          64.2236   91.4552   12.9477 C.3     1  UNL1        0.0636
      6 C          66.5507   93.8421   13.9441 C.3     1  UNL1        0.1768
      7 O          66.6448   92.5683   13.1574 O.3     1  UNL1       -0.3278
      8 C          61.9538   90.4800   11.9270 C.3     1  UNL1        0.0291
      9 C          61.5974   89.3156   11.0510 C.ar    1  UNL1       -0.0189
     10 C          62.3329   88.0163   11.1946 C.ar    1  UNL1       -0.0009
     11 C          61.9766   86.8519   10.3187 C.ar    1  UNL1        0.0399
     12 C          60.8847   86.9869    9.2992 C.ar    1  UNL1        0.1764
     13 C          60.1491   88.2863    9.1556 C.ar    1  UNL1        0.1761
     14 C          60.5054   89.4506   10.0315 C.ar    1  UNL1        0.0359
     15 O          59.1265   88.1226    8.0704 O.3     1  UNL1       -0.4346
     16 C          59.2301   86.7221    7.5433 C.3     1  UNL1        0.4294
     17 O          60.3167   86.0202    8.3027 O.3     1  UNL1       -0.4346
     18 C          63.9522   91.2080   14.4021 C.3     1  UNL1        0.0316
     19 C          63.8696   89.8031   14.9214 C.ar    1  UNL1       -0.0188
     20 C          64.4223   88.6696   14.1092 C.ar    1  UNL1       -0.0009
     21 C          64.3397   87.2648   14.6285 C.ar    1  UNL1        0.0399
     22 C          63.7044   86.9936   15.9600 C.ar    1  UNL1        0.1764
     23 C          63.1517   88.1271   16.7721 C.ar    1  UNL1        0.1761
     24 C          63.2343   89.5318   16.2528 C.ar    1  UNL1        0.0359
     25 O          62.5867   87.5570   18.0393 O.3     1  UNL1       -0.4346
     26 C          62.7902   86.0711   18.0103 C.3     1  UNL1        0.4294
     27 O          63.4810   85.7229   16.7252 O.3     1  UNL1       -0.4346
@<TRIPOS>BOND
     1     6     7    1
     2     1     7    1
     3     1     2    1
     4     2     3    1
     5     3     4    1
     6     4     8    1
     7     8     9    1
     8     9    10   ar
     9    10    11   ar
    10    11    12   ar
    11    12    13   ar
    12    13    14   ar
    13    13    15    1
    14    15    16    1
    15    16    17    1
    16     4     5    1
    17     5    18    1
    18    18    19    1
    19    19    20   ar
    20    20    21   ar
    21    21    22   ar
    22    22    23   ar
    23    23    24   ar
    24    23    25    1
    25    25    26    1
    26    26    27    1
    27     5     1    1
    28    24    19   ar
    29    14     9   ar
    30    27    22    1
    31    17    12    1
@<TRIPOS>MOLECULE
*****
 27 31 0 0 0
SMALL
GASTEIGER

@<TRIPOS>ATOM
      1 C          60.1927   88.7518    9.0596 C.3     1  UNL1        0.2354
      2 O          59.5733   89.8832    9.8253 O.3     1  UNL1       -0.3305
      3 C          60.4849   90.2246   10.9665 C.3     1  UNL1        0.1452
      4 C          61.6677   89.3041   10.9062 C.3     1  UNL1        0.0393
      5 C          61.4872   88.3939    9.7277 C.3     1  UNL1        0.0636
      6 C          59.1471   86.6713    7.9070 C.3     1  UNL1        0.1768
      7 O          59.6185   88.0938    7.8401 O.3     1  UNL1       -0.3278
      8 C          62.8275   89.2955   11.8575 C.3     1  UNL1        0.0291
      9 C          63.7208   90.4960   11.9620 C.ar    1  UNL1       -0.0189
     10 C          64.0209   91.3160   10.7425 C.ar    1  UNL1       -0.0009
     11 C          64.9141   92.5165   10.8470 C.ar    1  UNL1        0.0399
     12 C          65.5072   92.8970   12.1712 C.ar    1  UNL1        0.1764
     13 C          65.2070   92.0770   13.3908 C.ar    1  UNL1        0.1761
     14 C          64.3138   90.8765   13.2863 C.ar    1  UNL1        0.0359
     15 O          65.9304   92.6917   14.5523 O.3     1  UNL1       -0.4346
     16 C          66.6776   93.8916   14.0504 C.3     1  UNL1        0.4294
     17 O          66.4160   94.0185   12.5788 O.3     1  UNL1       -0.4346
     18 C          62.4347   87.3151    9.2935 C.3     1  UNL1        0.0316
     19 C          62.6121   86.0881   10.1380 C.ar    1  UNL1       -0.0188
     20 C          63.1238   84.8204    9.5208 C.ar    1  UNL1       -0.0009
     21 C          63.3011   83.5935   10.3653 C.ar    1  UNL1        0.0399
     22 C          62.9668   83.6343   11.8270 C.ar    1  UNL1        0.1764
     23 C          62.4551   84.9021   12.4442 C.ar    1  UNL1        0.1761
     24 C          62.2778   86.1290   11.5997 C.ar    1  UNL1        0.0359
     25 O          62.2108   84.6425   13.9012 O.3     1  UNL1       -0.4346
     26 C          62.5715   83.2143   14.1846 C.3     1  UNL1        0.4294
     27 O          63.0388   82.5912   12.9026 O.3     1  UNL1       -0.4346
@<TRIPOS>BOND
     1     6     7    1
     2     1     7    1
     3     1     2    1
     4     2     3    1
     5     3     4    1
     6     4     8    1
     7     8     9    1
     8     9    10   ar
     9    10    11   ar
    10    11    12   ar
    11    12    13   ar
    12    13    14   ar
    13    13    15    1
    14    15    16    1
    15    16    17    1
    16     4     5    1
    17     5    18    1
    18    18    19    1
    19    19    20   ar
    20    20    21   ar
    21    21    22   ar
    22    22    23   ar
    23    23    24   ar
    24    23    25    1
    25    25    26    1
    26    26    27    1
    27     5     1    1
    28    24    19   ar
    29    14     9   ar
    30    27    22    1
    31    17    12    1
@<TRIPOS>MOLECULE
*****
 27 31 0 0 0
SMALL
GASTEIGER

@<TRIPOS>ATOM
      1 C          60.2667   88.4071   10.2120 C.3     1  UNL1        0.2354
      2 O          59.7169   87.5100    9.1429 O.3     1  UNL1       -0.3305
      3 C          60.6147   86.3132    9.0351 C.3     1  UNL1        0.1452
      4 C          61.7194   86.4706   10.0376 C.3     1  UNL1        0.0393
      5 C          61.5043   87.7647   10.7649 C.3     1  UNL1        0.0636
      6 C          59.2625   89.9100   12.0783 C.3     1  UNL1        0.1768
      7 O          59.6816   89.7166   10.6510 O.3     1  UNL1       -0.3278
      8 C          62.8420   85.5037   10.2716 C.3     1  UNL1        0.0291
      9 C          62.7535   84.5082   11.3902 C.ar    1  UNL1       -0.0189
     10 C          62.6673   84.9820   12.8107 C.ar    1  UNL1       -0.0009
     11 C          62.5789   83.9865   13.9293 C.ar    1  UNL1        0.0399
     12 C          62.5766   82.5172   13.6273 C.ar    1  UNL1        0.1764
     13 C          62.6628   82.0434   12.2067 C.ar    1  UNL1        0.1761
     14 C          62.7513   83.0389   11.0881 C.ar    1  UNL1        0.0359
     15 O          62.6396   80.5436   12.2160 O.3     1  UNL1       -0.4346
     16 C          62.5391   80.0905   13.6424 C.3     1  UNL1        0.4294
     17 O          62.5002   81.3103   14.5146 O.3     1  UNL1       -0.4346
     18 C          62.3741   88.3191   11.8540 C.3     1  UNL1        0.0316
     19 C          63.1063   89.6115   11.6444 C.ar    1  UNL1       -0.0188
     20 C          63.0549   90.2947   10.3100 C.ar    1  UNL1       -0.0009
     21 C          63.7870   91.5869   10.1004 C.ar    1  UNL1        0.0399
     22 C          64.5706   92.1959   11.2252 C.ar    1  UNL1        0.1764
     23 C          64.6221   91.5127   12.5595 C.ar    1  UNL1        0.1761
     24 C          63.8899   90.2205   12.7691 C.ar    1  UNL1        0.0359
     25 O          65.4702   92.3456   13.4743 O.3     1  UNL1       -0.4346
     26 C          65.9430   93.5436   12.7053 C.3     1  UNL1        0.4294
     27 O          65.3871   93.4511   11.3153 O.3     1  UNL1       -0.4346
@<TRIPOS>BOND
     1     6     7    1
     2     1     7    1
     3     1     2    1
     4     2     3    1
     5     3     4    1
     6     4     8    1
     7     8     9    1
     8     9    10   ar
     9    10    11   ar
    10    11    12   ar
    11    12    13   ar
    12    13    14   ar
    13    13    15    1
    14    15    16    1
    15    16    17    1
    16     4     5    1
    17     5    18    1
    18    18    19    1
    19    19    20   ar
    20    20    21   ar
    21    21    22   ar
    22    22    23   ar
    23    23    24   ar
    24    23    25    1
    25    25    26    1
    26    26    27    1
    27     5     1    1
    28    24    19   ar
    29    14     9   ar
    30    27    22    1
    31    17    12    1
@<TRIPOS>MOLECULE
*****
 27 31 0 0 0
SMALL
GASTEIGER

@<TRIPOS>ATOM
      1 C          60.2419   88.9860    9.3321 C.3     1  UNL1        0.2354
      2 O          59.7461   90.1291   10.1674 O.3     1  UNL1       -0.3305
      3 C          60.7229   90.3442   11.2853 C.3     1  UNL1        0.1452
      4 C          61.8224   89.3341   11.1409 C.3     1  UNL1        0.0393
      5 C          61.5251   88.4946    9.9339 C.3     1  UNL1        0.0636
      6 C          59.1167   87.0026    8.0872 C.3     1  UNL1        0.1768
      7 O          59.5722   88.4316    8.1099 O.3     1  UNL1       -0.3278
      8 C          63.0105   89.1889   12.0450 C.3     1  UNL1        0.0291
      9 C          63.9072   90.3642   12.2998 C.ar    1  UNL1       -0.0189
     10 C          64.5648   90.5296   13.6376 C.ar    1  UNL1       -0.0009
     11 C          65.4615   91.7048   13.8924 C.ar    1  UNL1        0.0399
     12 C          65.7004   92.7146   12.8092 C.ar    1  UNL1        0.1764
     13 C          65.0427   92.5491   11.4713 C.ar    1  UNL1        0.1761
     14 C          64.1461   91.3739   11.2165 C.ar    1  UNL1        0.0359
     15 O          65.4630   93.6977   10.6029 O.3     1  UNL1       -0.4346
     16 C          66.3805   94.5730   11.4042 C.3     1  UNL1        0.4294
     17 O          66.5272   93.9654   12.7677 O.3     1  UNL1       -0.4346
     18 C          62.3638   87.3626    9.4189 C.3     1  UNL1        0.0316
     19 C          62.5255   86.1161   10.2376 C.ar    1  UNL1       -0.0188
     20 C          62.0709   86.0934   11.6669 C.ar    1  UNL1       -0.0009
     21 C          62.2325   84.8469   12.4855 C.ar    1  UNL1        0.0399
     22 C          62.8487   83.6232   11.8748 C.ar    1  UNL1        0.1764
     23 C          63.3033   83.6460   10.4456 C.ar    1  UNL1        0.1761
     24 C          63.1417   84.8924    9.6270 C.ar    1  UNL1        0.0359
     25 O          63.8709   82.2967   10.1182 O.3     1  UNL1       -0.4346
     26 C          63.7671   81.4400   11.3451 C.3     1  UNL1        0.4294
     27 O          63.1354   82.2598   12.4308 O.3     1  UNL1       -0.4346
@<TRIPOS>BOND
     1     6     7    1
     2     1     7    1
     3     1     2    1
     4     2     3    1
     5     3     4    1
     6     4     8    1
     7     8     9    1
     8     9    10   ar
     9    10    11   ar
    10    11    12   ar
    11    12    13   ar
    12    13    14   ar
    13    13    15    1
    14    15    16    1
    15    16    17    1
    16     4     5    1
    17     5    18    1
    18    18    19    1
    19    19    20   ar
    20    20    21   ar
    21    21    22   ar
    22    22    23   ar
    23    23    24   ar
    24    23    25    1
    25    25    26    1
    26    26    27    1
    27     5     1    1
    28    24    19   ar
    29    14     9   ar
    30    27    22    1
    31    17    12    1
