@<TRIPOS>MOLECULE
*****
 38 42 0 0 0
SMALL
GASTEIGER

@<TRIPOS>ATOM
      1 C          63.0923   87.5077   17.3276 C.3     1  UNL1        0.0666
      2 S          62.4154   88.5966   16.5491 S.3     1  UNL1       -0.0756
      3 C          63.8703   88.7620   13.6327 C.3     1  UNL1        0.1340
      4 N          63.8837   89.8294   14.6865 N.ar    1  UNL1       -0.2884
      5 C          63.2149   89.7534   16.0270 C.ar    1  UNL1        0.1932
      6 N          63.4860   91.0372   16.7538 N.ar    1  UNL1       -0.1221
      7 N          64.3224   91.9067   15.8625 N.ar    1  UNL1       -0.1282
      8 C          64.5681   91.1603   14.5848 C.ar    1  UNL1        0.1668
      9 C          65.3594   91.6574   13.4114 C.ar    1  UNL1        0.0360
     10 C          64.6759   91.9171   12.1017 C.ar    1  UNL1        0.0032
     11 C          65.4672   92.4143   10.9283 C.ar    1  UNL1        0.0046
     12 C          66.9420   92.6517   11.0648 C.ar    1  UNL1        0.0531
     13 C          67.6255   92.3920   12.3745 C.ar    1  UNL1        0.0046
     14 C          66.8342   91.8949   13.5478 C.ar    1  UNL1        0.0032
     15 C          67.7333   93.1489    9.8915 C.2     1  UNL1        0.2427
     16 N          69.1483   92.6923    9.6934 N.am    1  UNL1       -0.3253
     17 O          67.1095   94.1026    8.9161 O.2     1  UNL1       -0.2704
     18 H          69.5577   92.0663   10.3336 H       1  UNL1        0.1453
     19 H          69.6676   93.0186    8.9233 H       1  UNL1        0.1453
     20 C          63.2451   86.1411   16.7283 C.3     1  UNL1        0.0294
     21 C          64.2916   85.8933   15.6826 C.3     1  UNL1        0.0730
     22 N          64.0809   84.8274   14.6485 N.3     1  UNL1       -0.2726
     23 C          64.4994   83.3916   14.7643 C.3     1  UNL1        0.0721
     24 C          64.0919   82.6870   13.5044 C.3     1  UNL1        0.0190
     25 C          63.4215   83.6873   12.6099 C.3     1  UNL1        0.0201
     26 C          63.1419   82.7318   11.4879 C.3     1  UNL1        0.0061
     27 C          62.7233   84.1675   11.3722 C.3     1  UNL1        0.0237
     28 C          63.4147   85.0101   13.3170 C.3     1  UNL1        0.0724
     29 C          62.0787   85.2738   10.5907 C.ar    1  UNL1       -0.0225
     30 C          61.2196   86.2847   11.2908 C.ar    1  UNL1       -0.0043
     31 C          60.5749   87.3909   10.5094 C.ar    1  UNL1        0.0035
     32 C          60.7893   87.4862    9.0279 C.ar    1  UNL1        0.0714
     33 C          61.6484   86.4753    8.3278 C.ar    1  UNL1        0.0035
     34 C          62.2931   85.3691    9.1092 C.ar    1  UNL1       -0.0043
     35 C          60.1447   88.5924    8.2464 C.3     1  UNL1        0.4186
     36 F          59.4999   89.6987    7.4649 F       1  UNL1       -0.1659
     37 F          60.9612   89.6003    8.9996 F       1  UNL1       -0.1659
     38 F          59.3281   87.5845    7.4933 F       1  UNL1       -0.1659
@<TRIPOS>BOND
     1     3     4    1
     2     4     5   ar
     3     5     2    1
     4     2     1    1
     5     1    20    1
     6    20    21    1
     7    21    22    1
     8    22    23    1
     9    23    24    1
    10    25    24    1
    11    25    26    1
    12    26    27    1
    13    27    29    1
    14    29    30   ar
    15    30    31   ar
    16    31    32   ar
    17    32    35    1
    18    35    36    1
    19    35    37    1
    20    35    38    1
    21    32    33   ar
    22    33    34   ar
    23    25    28    1
    24     5     6   ar
    25     6     7   ar
    26     7     8   ar
    27     8     9    1
    28     9    10   ar
    29    10    11   ar
    30    11    12   ar
    31    12    15    1
    32    15    16   am
    33    15    17    2
    34    12    13   ar
    35    13    14   ar
    36     8     4   ar
    37    14     9   ar
    38    28    22    1
    39    27    25    1
    40    34    29   ar
    41    16    18    1
    42    16    19    1
@<TRIPOS>MOLECULE
*****
 38 42 0 0 0
SMALL
GASTEIGER

@<TRIPOS>ATOM
      1 C          62.7346   84.7911   15.6913 C.3     1  UNL1        0.0666
      2 S          63.0847   85.7567   16.7845 S.3     1  UNL1       -0.0756
      3 C          64.6735   87.0160   14.2272 C.3     1  UNL1        0.1340
      4 N          63.9705   87.7949   15.2992 N.ar    1  UNL1       -0.2884
      5 C          63.2402   87.2161   16.4746 C.ar    1  UNL1        0.1932
      6 N          62.6928   88.3528   17.2859 N.ar    1  UNL1       -0.1221
      7 N          63.0847   89.6342   16.6118 N.ar    1  UNL1       -0.1282
      8 C          63.8744   89.2895   15.3839 C.ar    1  UNL1        0.1668
      9 C          64.4644   90.2675   14.4116 C.ar    1  UNL1        0.0360
     10 C          65.8020   90.8869   14.6892 C.ar    1  UNL1        0.0032
     11 C          66.3920   91.8650   13.7169 C.ar    1  UNL1        0.0046
     12 C          65.6442   92.2235   12.4669 C.ar    1  UNL1        0.0531
     13 C          64.3066   91.6041   12.1893 C.ar    1  UNL1        0.0046
     14 C          63.7167   90.6261   13.1617 C.ar    1  UNL1        0.0032
     15 C          66.2342   93.2016   11.4946 C.2     1  UNL1        0.2427
     16 N          65.4015   94.3344   10.9719 N.am    1  UNL1       -0.3253
     17 O          67.6568   93.0467   11.0450 O.2     1  UNL1       -0.2704
     18 H          64.4678   94.4360   11.2669 H       1  UNL1        0.1453
     19 H          65.7887   94.9763   10.3337 H       1  UNL1        0.1453
     20 C          63.7281   83.7530   15.2609 C.3     1  UNL1        0.0294
     21 C          63.3295   82.6974   14.2725 C.3     1  UNL1        0.0730
     22 N          63.4986   82.9442   12.8026 N.3     1  UNL1       -0.2726
     23 C          64.2229   82.0539   11.8368 C.3     1  UNL1        0.0721
     24 C          64.1450   82.6840   10.4778 C.3     1  UNL1        0.0190
     25 C          63.3726   83.9637   10.6037 C.3     1  UNL1        0.0201
     26 C          63.4601   84.3428    9.1551 C.3     1  UNL1        0.0061
     27 C          62.7358   85.2331   10.1209 C.3     1  UNL1        0.0237
     28 C          62.9731   84.1245   12.0406 C.3     1  UNL1        0.0724
     29 C          61.9500   86.4799   10.3998 C.ar    1  UNL1       -0.0225
     30 C          60.5849   86.6553    9.8032 C.ar    1  UNL1       -0.0043
     31 C          59.7991   87.9022   10.0820 C.ar    1  UNL1        0.0035
     32 C          60.3783   88.9736   10.9576 C.ar    1  UNL1        0.0714
     33 C          61.7433   88.7982   11.5542 C.ar    1  UNL1        0.0035
     34 C          62.5292   87.5514   11.2753 C.ar    1  UNL1       -0.0043
     35 C          59.5925   90.2205   11.2365 C.3     1  UNL1        0.4186
     36 F          58.8066   91.4674   11.5154 F       1  UNL1       -0.1659
     37 F          59.8243   90.6816    9.8281 F       1  UNL1       -0.1659
     38 F          59.3606   89.7593   12.6448 F       1  UNL1       -0.1659
@<TRIPOS>BOND
     1     3     4    1
     2     4     5   ar
     3     5     2    1
     4     2     1    1
     5     1    20    1
     6    20    21    1
     7    21    22    1
     8    22    23    1
     9    23    24    1
    10    25    24    1
    11    25    26    1
    12    26    27    1
    13    27    29    1
    14    29    30   ar
    15    30    31   ar
    16    31    32   ar
    17    32    35    1
    18    35    36    1
    19    35    37    1
    20    35    38    1
    21    32    33   ar
    22    33    34   ar
    23    25    28    1
    24     5     6   ar
    25     6     7   ar
    26     7     8   ar
    27     8     9    1
    28     9    10   ar
    29    10    11   ar
    30    11    12   ar
    31    12    15    1
    32    15    16   am
    33    15    17    2
    34    12    13   ar
    35    13    14   ar
    36     8     4   ar
    37    14     9   ar
    38    28    22    1
    39    27    25    1
    40    34    29   ar
    41    16    18    1
    42    16    19    1
@<TRIPOS>MOLECULE
*****
 38 42 0 0 0
SMALL
GASTEIGER

@<TRIPOS>ATOM
      1 C          59.9251   88.4151    9.2649 C.3     1  UNL1        0.0666
      2 S          60.4339   89.7587    9.6960 S.3     1  UNL1       -0.0756
      3 C          63.3004   91.2975    9.9509 C.3     1  UNL1        0.1340
      4 N          62.5775   90.5907   11.0590 N.ar    1  UNL1       -0.2884
      5 C          61.2599   89.8834   10.9419 C.ar    1  UNL1        0.1932
      6 N          60.9133   89.3227   12.2893 N.ar    1  UNL1       -0.1221
      7 N          62.0167   89.6834   13.2392 N.ar    1  UNL1       -0.1282
      8 C          63.0453   90.4672   12.4789 C.ar    1  UNL1        0.1668
      9 C          64.3180   91.0287   13.0400 C.ar    1  UNL1        0.0360
     10 C          64.8652   90.5003   14.3328 C.ar    1  UNL1        0.0032
     11 C          66.1380   91.0618   14.8939 C.ar    1  UNL1        0.0046
     12 C          66.8635   92.1518   14.1620 C.ar    1  UNL1        0.0531
     13 C          66.3164   92.6802   12.8692 C.ar    1  UNL1        0.0046
     14 C          65.0436   92.1186   12.3082 C.ar    1  UNL1        0.0032
     15 C          68.1363   92.7133   14.7230 C.2     1  UNL1        0.2427
     16 N          69.4544   92.3386   14.1130 N.am    1  UNL1       -0.3253
     17 O          68.0909   93.6495   15.8941 O.2     1  UNL1       -0.2704
     18 H          69.4842   91.7241   13.3444 H       1  UNL1        0.1453
     19 H          70.2898   92.7071   14.4813 H       1  UNL1        0.1453
     20 C          60.5952   87.1663    9.7566 C.3     1  UNL1        0.0294
     21 C          61.6963   86.5399    8.9534 C.3     1  UNL1        0.0730
     22 N          62.5038   85.4176    9.5350 N.3     1  UNL1       -0.2726
     23 C          63.0995   84.2721    8.7715 C.3     1  UNL1        0.0721
     24 C          63.8214   83.3904    9.7470 C.3     1  UNL1        0.0190
     25 C          63.6718   83.9910   11.1134 C.3     1  UNL1        0.0201
     26 C          64.4593   82.9377   11.8347 C.3     1  UNL1        0.0061
     27 C          63.8636   84.0832   12.5982 C.3     1  UNL1        0.0237
     28 C          62.8575   85.2439   10.9824 C.3     1  UNL1        0.0724
     29 C          63.6305   84.7978   13.8963 C.ar    1  UNL1       -0.0225
     30 C          64.3782   86.0619   14.2014 C.ar    1  UNL1       -0.0043
     31 C          64.1451   86.7765   15.4994 C.ar    1  UNL1        0.0035
     32 C          63.1641   86.2271   16.4923 C.ar    1  UNL1        0.0714
     33 C          62.4164   84.9630   16.1872 C.ar    1  UNL1        0.0035
     34 C          62.6495   84.2484   14.8892 C.ar    1  UNL1       -0.0043
     35 C          62.9310   86.9417   17.7904 C.3     1  UNL1        0.4186
     36 F          62.6978   87.6563   19.0885 F       1  UNL1       -0.1659
     37 F          63.3981   88.2242   17.1682 F       1  UNL1       -0.1659
     38 F          62.4639   85.6592   18.4125 F       1  UNL1       -0.1659
@<TRIPOS>BOND
     1     3     4    1
     2     4     5   ar
     3     5     2    1
     4     2     1    1
     5     1    20    1
     6    20    21    1
     7    21    22    1
     8    22    23    1
     9    23    24    1
    10    25    24    1
    11    25    26    1
    12    26    27    1
    13    27    29    1
    14    29    30   ar
    15    30    31   ar
    16    31    32   ar
    17    32    35    1
    18    35    36    1
    19    35    37    1
    20    35    38    1
    21    32    33   ar
    22    33    34   ar
    23    25    28    1
    24     5     6   ar
    25     6     7   ar
    26     7     8   ar
    27     8     9    1
    28     9    10   ar
    29    10    11   ar
    30    11    12   ar
    31    12    15    1
    32    15    16   am
    33    15    17    2
    34    12    13   ar
    35    13    14   ar
    36     8     4   ar
    37    14     9   ar
    38    28    22    1
    39    27    25    1
    40    34    29   ar
    41    16    18    1
    42    16    19    1
@<TRIPOS>MOLECULE
*****
 38 42 0 0 0
SMALL
GASTEIGER

@<TRIPOS>ATOM
      1 C          63.6005   82.8132   12.8497 C.3     1  UNL1        0.0666
      2 S          63.6974   83.6494   11.6082 S.3     1  UNL1       -0.0756
      3 C          63.0160   85.0457    8.7384 C.3     1  UNL1        0.1340
      4 N          62.4138   85.4123   10.0624 N.ar    1  UNL1       -0.2884
      5 C          62.7270   84.7705   11.3815 C.ar    1  UNL1        0.1932
      6 N          61.8993   85.4466   12.4341 N.ar    1  UNL1       -0.1221
      7 N          61.0746   86.5062   11.7655 N.ar    1  UNL1       -0.1282
      8 C          61.3925   86.4851   10.2997 C.ar    1  UNL1        0.1668
      9 C          60.7943   87.3796    9.2547 C.ar    1  UNL1        0.0360
     10 C          59.9960   86.7897    8.1302 C.ar    1  UNL1        0.0032
     11 C          59.3978   87.6843    7.0852 C.ar    1  UNL1        0.0046
     12 C          59.5979   89.1688    7.1650 C.ar    1  UNL1        0.0531
     13 C          60.3962   89.7587    8.2895 C.ar    1  UNL1        0.0046
     14 C          60.9944   88.8641    9.3345 C.ar    1  UNL1        0.0032
     15 C          58.9996   90.0633    6.1200 C.2     1  UNL1        0.2427
     16 N          57.5101   90.1366    5.9589 N.am    1  UNL1       -0.3253
     17 O          59.8909   90.8846    5.2362 O.2     1  UNL1       -0.2704
     18 H          56.9251   89.5976    6.5390 H       1  UNL1        0.1453
     19 H          57.1175   90.7237    5.2730 H       1  UNL1        0.1453
     20 C          64.2638   83.2699   14.1152 C.3     1  UNL1        0.0294
     21 C          64.8904   84.6309   14.1847 C.3     1  UNL1        0.0730
     22 N          64.3042   85.6817   15.0804 N.3     1  UNL1       -0.2726
     23 C          63.6376   85.4414   16.4025 C.3     1  UNL1        0.0721
     24 C          63.2031   86.7684   16.9504 C.3     1  UNL1        0.0190
     25 C          63.6012   87.8288   15.9670 C.3     1  UNL1        0.0201
     26 C          63.0598   88.9846   16.7550 C.3     1  UNL1        0.0061
     27 C          63.7264   89.2249   15.4329 C.3     1  UNL1        0.0237
     28 C          64.2817   87.1571   14.8112 C.3     1  UNL1        0.0724
     29 C          64.1835   90.1696   14.3612 C.ar    1  UNL1       -0.0225
     30 C          63.4069   90.2865   13.0832 C.ar    1  UNL1       -0.0043
     31 C          63.8641   91.2313   12.0116 C.ar    1  UNL1        0.0035
     32 C          65.0978   92.0591   12.2179 C.ar    1  UNL1        0.0714
     33 C          65.8744   91.9421   13.4959 C.ar    1  UNL1        0.0035
     34 C          65.4173   90.9974   14.5676 C.ar    1  UNL1       -0.0043
     35 C          65.5550   93.0038   11.1462 C.3     1  UNL1        0.4186
     36 F          66.0121   93.9485   10.0745 F       1  UNL1       -0.1659
     37 F          66.5120   93.6367   12.1124 F       1  UNL1       -0.1659
     38 F          64.5980   92.3709   10.1801 F       1  UNL1       -0.1659
@<TRIPOS>BOND
     1     3     4    1
     2     4     5   ar
     3     5     2    1
     4     2     1    1
     5     1    20    1
     6    20    21    1
     7    21    22    1
     8    22    23    1
     9    23    24    1
    10    25    24    1
    11    25    26    1
    12    26    27    1
    13    27    29    1
    14    29    30   ar
    15    30    31   ar
    16    31    32   ar
    17    32    35    1
    18    35    36    1
    19    35    37    1
    20    35    38    1
    21    32    33   ar
    22    33    34   ar
    23    25    28    1
    24     5     6   ar
    25     6     7   ar
    26     7     8   ar
    27     8     9    1
    28     9    10   ar
    29    10    11   ar
    30    11    12   ar
    31    12    15    1
    32    15    16   am
    33    15    17    2
    34    12    13   ar
    35    13    14   ar
    36     8     4   ar
    37    14     9   ar
    38    28    22    1
    39    27    25    1
    40    34    29   ar
    41    16    18    1
    42    16    19    1
@<TRIPOS>MOLECULE
*****
 38 42 0 0 0
SMALL
GASTEIGER

@<TRIPOS>ATOM
      1 C          62.4142   86.8413   17.3407 C.3     1  UNL1        0.0666
      2 S          62.9525   88.2341   17.1984 S.3     1  UNL1       -0.0756
      3 C          63.8346   91.2852   16.4486 C.3     1  UNL1        0.1340
      4 N          63.9098   90.0964   15.5370 N.ar    1  UNL1       -0.2884
      5 C          63.5044   88.6940   15.8817 C.ar    1  UNL1        0.1932
      6 N          63.7477   87.8321   14.6783 N.ar    1  UNL1       -0.1221
      7 N          64.3035   88.7019   13.5900 N.ar    1  UNL1       -0.1282
      8 C          64.4038   90.1013   14.1206 C.ar    1  UNL1        0.1668
      9 C          64.9092   91.2959   13.3672 C.ar    1  UNL1        0.0360
     10 C          65.8923   92.2279   14.0112 C.ar    1  UNL1        0.0032
     11 C          66.3977   93.4225   13.2578 C.ar    1  UNL1        0.0046
     12 C          65.9199   93.6849   11.8603 C.ar    1  UNL1        0.0531
     13 C          64.9368   92.7529   11.2163 C.ar    1  UNL1        0.0046
     14 C          64.4314   91.5583   11.9698 C.ar    1  UNL1        0.0032
     15 C          66.4253   94.8795   11.1069 C.2     1  UNL1        0.2427
     16 N          65.7660   96.2146   11.2882 N.am    1  UNL1       -0.3253
     17 O          67.5899   94.7390   10.1721 O.2     1  UNL1       -0.2704
     18 H          65.0016   96.3068   11.9017 H       1  UNL1        0.1453
     19 H          66.0977   96.9986   10.7937 H       1  UNL1        0.1453
     20 C          63.1554   85.6854   16.7369 C.3     1  UNL1        0.0294
     21 C          62.4205   84.6730   15.9094 C.3     1  UNL1        0.0730
     22 N          63.0747   84.0767   14.6984 N.3     1  UNL1       -0.2726
     23 C          64.1056   82.9872   14.6997 C.3     1  UNL1        0.0721
     24 C          64.4808   82.7024   13.2755 C.3     1  UNL1        0.0190
     25 C          63.6818   83.6160   12.3941 C.3     1  UNL1        0.0201
     26 C          64.2488   83.1185   11.0976 C.3     1  UNL1        0.0061
     27 C          63.2179   84.2081   11.0963 C.3     1  UNL1        0.0237
     28 C          62.8127   84.4654   13.2735 C.3     1  UNL1        0.0724
     29 C          62.3548   85.1790   10.3463 C.ar    1  UNL1       -0.0225
     30 C          62.3189   85.1476    8.8470 C.ar    1  UNL1       -0.0043
     31 C          61.4558   86.1185    8.0970 C.ar    1  UNL1        0.0035
     32 C          60.6287   87.1207    8.8463 C.ar    1  UNL1        0.0714
     33 C          60.6647   87.1521   10.3456 C.ar    1  UNL1        0.0035
     34 C          61.5277   86.1812   11.0956 C.ar    1  UNL1       -0.0043
     35 C          59.7657   88.0916    8.0963 C.3     1  UNL1        0.4186
     36 F          58.9026   89.0626    7.3463 F       1  UNL1       -0.1659
     37 F          59.1909   86.9615    7.2948 F       1  UNL1       -0.1659
     38 F          60.3405   89.2217    8.8978 F       1  UNL1       -0.1659
@<TRIPOS>BOND
     1     3     4    1
     2     4     5   ar
     3     5     2    1
     4     2     1    1
     5     1    20    1
     6    20    21    1
     7    21    22    1
     8    22    23    1
     9    23    24    1
    10    25    24    1
    11    25    26    1
    12    26    27    1
    13    27    29    1
    14    29    30   ar
    15    30    31   ar
    16    31    32   ar
    17    32    35    1
    18    35    36    1
    19    35    37    1
    20    35    38    1
    21    32    33   ar
    22    33    34   ar
    23    25    28    1
    24     5     6   ar
    25     6     7   ar
    26     7     8   ar
    27     8     9    1
    28     9    10   ar
    29    10    11   ar
    30    11    12   ar
    31    12    15    1
    32    15    16   am
    33    15    17    2
    34    12    13   ar
    35    13    14   ar
    36     8     4   ar
    37    14     9   ar
    38    28    22    1
    39    27    25    1
    40    34    29   ar
    41    16    18    1
    42    16    19    1
@<TRIPOS>MOLECULE
*****
 38 42 0 0 0
SMALL
GASTEIGER

@<TRIPOS>ATOM
      1 C          63.7445   82.3656   14.4937 C.3     1  UNL1        0.0666
      2 S          63.9527   81.8521   13.0999 S.3     1  UNL1       -0.0756
      3 C          62.0466   84.5007   13.0547 C.3     1  UNL1        0.1340
      4 N          62.8547   83.9762   11.9050 N.ar    1  UNL1       -0.2884
      5 C          63.7308   82.7588   11.9257 C.ar    1  UNL1        0.1932
      6 N          64.3462   82.6073   10.5661 N.ar    1  UNL1       -0.1221
      7 N          63.8504   83.7311    9.7051 N.ar    1  UNL1       -0.1282
      8 C          62.9286   84.5772   10.5325 C.ar    1  UNL1        0.1668
      9 C          62.2074   85.8080   10.0689 C.ar    1  UNL1        0.0360
     10 C          61.3674   85.7620    8.8270 C.ar    1  UNL1        0.0032
     11 C          60.6462   86.9928    8.3634 C.ar    1  UNL1        0.0046
     12 C          60.7650   88.2696    9.1418 C.ar    1  UNL1        0.0531
     13 C          61.6049   88.3156   10.3837 C.ar    1  UNL1        0.0046
     14 C          62.3261   87.0847   10.8472 C.ar    1  UNL1        0.0032
     15 C          60.0437   89.5004    8.6782 C.2     1  UNL1        0.2427
     16 N          59.6732   89.6529    7.2327 N.am    1  UNL1       -0.3253
     17 O          59.6930   90.5788    9.6600 O.2     1  UNL1       -0.2704
     18 H          59.9034   88.9451    6.5882 H       1  UNL1        0.1453
     19 H          59.1999   90.4607    6.9284 H       1  UNL1        0.1453
     20 C          64.7462   83.2989   15.1066 C.3     1  UNL1        0.0294
     21 C          64.8523   84.7126   14.6164 C.3     1  UNL1        0.0730
     22 N          64.2380   85.8289   15.4079 N.3     1  UNL1       -0.2726
     23 C          63.5287   85.6914   16.7224 C.3     1  UNL1        0.0721
     24 C          63.0776   87.0563   17.1507 C.3     1  UNL1        0.0190
     25 C          63.5081   88.0374   16.1009 C.3     1  UNL1        0.0201
     26 C          62.9422   89.2502   16.7783 C.3     1  UNL1        0.0061
     27 C          63.6515   89.3878   15.4638 C.3     1  UNL1        0.0237
     28 C          64.2253   87.2789   15.0238 C.3     1  UNL1        0.0724
     29 C          64.1439   90.2468   14.3370 C.ar    1  UNL1       -0.0225
     30 C          63.4169   90.2521   13.0249 C.ar    1  UNL1       -0.0043
     31 C          63.9093   91.1111   11.8981 C.ar    1  UNL1        0.0035
     32 C          65.1285   91.9649   12.0834 C.ar    1  UNL1        0.0714
     33 C          65.8555   91.9597   13.3955 C.ar    1  UNL1        0.0035
     34 C          65.3631   91.1007   14.5223 C.ar    1  UNL1       -0.0043
     35 C          65.6209   92.8239   10.9567 C.3     1  UNL1        0.4186
     36 F          66.1132   93.6830    9.8298 F       1  UNL1       -0.1659
     37 F          66.8835   93.0992   11.7182 F       1  UNL1       -0.1659
     38 F          64.3582   92.5487   10.1951 F       1  UNL1       -0.1659
@<TRIPOS>BOND
     1     3     4    1
     2     4     5   ar
     3     5     2    1
     4     2     1    1
     5     1    20    1
     6    20    21    1
     7    21    22    1
     8    22    23    1
     9    23    24    1
    10    25    24    1
    11    25    26    1
    12    26    27    1
    13    27    29    1
    14    29    30   ar
    15    30    31   ar
    16    31    32   ar
    17    32    35    1
    18    35    36    1
    19    35    37    1
    20    35    38    1
    21    32    33   ar
    22    33    34   ar
    23    25    28    1
    24     5     6   ar
    25     6     7   ar
    26     7     8   ar
    27     8     9    1
    28     9    10   ar
    29    10    11   ar
    30    11    12   ar
    31    12    15    1
    32    15    16   am
    33    15    17    2
    34    12    13   ar
    35    13    14   ar
    36     8     4   ar
    37    14     9   ar
    38    28    22    1
    39    27    25    1
    40    34    29   ar
    41    16    18    1
    42    16    19    1
@<TRIPOS>MOLECULE
*****
 38 42 0 0 0
SMALL
GASTEIGER

@<TRIPOS>ATOM
      1 C          59.5580   90.1296    5.8529 C.3     1  UNL1        0.0666
      2 S          59.0562   89.3755    7.0484 S.3     1  UNL1       -0.0756
      3 C          59.7995   86.2364    7.5420 C.3     1  UNL1        0.1340
      4 N          60.3679   87.4053    8.2907 N.ar    1  UNL1       -0.2884
      5 C          60.0263   88.8482    8.0638 C.ar    1  UNL1        0.1932
      6 N          60.8250   89.6713    9.0306 N.ar    1  UNL1       -0.1221
      7 N          61.6602   88.7371    9.8550 N.ar    1  UNL1       -0.1282
      8 C          61.3778   87.3366    9.3978 C.ar    1  UNL1        0.1668
      9 C          61.9965   86.0869    9.9505 C.ar    1  UNL1        0.0360
     10 C          62.8557   85.2245    9.0742 C.ar    1  UNL1        0.0032
     11 C          63.4745   83.9749    9.6269 C.ar    1  UNL1        0.0046
     12 C          63.2339   83.5877   11.0560 C.ar    1  UNL1        0.0531
     13 C          62.3747   84.4501   11.9323 C.ar    1  UNL1        0.0046
     14 C          61.7560   85.6998   11.3795 C.ar    1  UNL1        0.0032
     15 C          63.8527   82.3380   11.6087 C.2     1  UNL1        0.2427
     16 N          65.0435   82.4288   12.5163 N.am    1  UNL1       -0.3253
     17 O          63.2806   80.9976   11.2539 O.2     1  UNL1       -0.2704
     18 H          65.4190   83.3085   12.7492 H       1  UNL1        0.1453
     19 H          65.4496   81.6086   12.8790 H       1  UNL1        0.1453
     20 C          58.6704   91.1261    5.1679 C.3     1  UNL1        0.0294
     21 C          59.2335   92.4355    4.7005 C.3     1  UNL1        0.0730
     22 N          60.0083   92.5036    3.4179 N.3     1  UNL1       -0.2726
     23 C          61.4573   92.1570    3.2437 C.3     1  UNL1        0.0721
     24 C          61.8147   92.3695    1.8025 C.3     1  UNL1        0.0190
     25 C          60.5866   92.8474    1.0860 C.3     1  UNL1        0.0201
     26 C          61.2288   92.9651   -0.2645 C.3     1  UNL1        0.0061
     27 C          59.7798   93.3117   -0.0903 C.3     1  UNL1        0.0237
     28 C          59.4702   92.9303    2.0844 C.3     1  UNL1        0.0724
     29 C          58.4774   93.7798   -0.6688 C.ar    1  UNL1       -0.0225
     30 C          58.2104   95.2476   -0.8245 C.ar    1  UNL1       -0.0043
     31 C          56.9080   95.7158   -1.4030 C.ar    1  UNL1        0.0035
     32 C          55.8727   94.7161   -1.8258 C.ar    1  UNL1        0.0714
     33 C          56.1398   93.2483   -1.6701 C.ar    1  UNL1        0.0035
     34 C          57.4421   92.7801   -1.0916 C.ar    1  UNL1       -0.0043
     35 C          54.5704   95.1842   -2.4044 C.3     1  UNL1        0.4186
     36 F          53.2680   95.6524   -2.9830 F       1  UNL1       -0.1659
     37 F          54.0206   95.3649   -1.0205 F       1  UNL1       -0.1659
     38 F          55.1202   95.0036   -3.7882 F       1  UNL1       -0.1659
@<TRIPOS>BOND
     1     3     4    1
     2     4     5   ar
     3     5     2    1
     4     2     1    1
     5     1    20    1
     6    20    21    1
     7    21    22    1
     8    22    23    1
     9    23    24    1
    10    25    24    1
    11    25    26    1
    12    26    27    1
    13    27    29    1
    14    29    30   ar
    15    30    31   ar
    16    31    32   ar
    17    32    35    1
    18    35    36    1
    19    35    37    1
    20    35    38    1
    21    32    33   ar
    22    33    34   ar
    23    25    28    1
    24     5     6   ar
    25     6     7   ar
    26     7     8   ar
    27     8     9    1
    28     9    10   ar
    29    10    11   ar
    30    11    12   ar
    31    12    15    1
    32    15    16   am
    33    15    17    2
    34    12    13   ar
    35    13    14   ar
    36     8     4   ar
    37    14     9   ar
    38    28    22    1
    39    27    25    1
    40    34    29   ar
    41    16    18    1
    42    16    19    1
@<TRIPOS>MOLECULE
*****
 38 42 0 0 0
SMALL
GASTEIGER

@<TRIPOS>ATOM
      1 C          62.8759   83.8185   13.9407 C.3     1  UNL1        0.0666
      2 S          63.7215   83.4761   12.7500 S.3     1  UNL1       -0.0756
      3 C          61.6422   85.9173   12.1445 C.3     1  UNL1        0.1340
      4 N          62.4078   85.1361   11.1180 N.ar    1  UNL1       -0.2884
      5 C          63.3636   84.0140   11.3963 C.ar    1  UNL1        0.1932
      6 N          63.8985   83.5243   10.0833 N.ar    1  UNL1       -0.1221
      7 N          63.2733   84.3437    8.9935 N.ar    1  UNL1       -0.1282
      8 C          62.3520   85.3399    9.6329 C.ar    1  UNL1        0.1668
      9 C          61.5209   86.3606    8.9135 C.ar    1  UNL1        0.0360
     10 C          60.6225   85.9386    7.7889 C.ar    1  UNL1        0.0032
     11 C          59.7914   86.9593    7.0695 C.ar    1  UNL1        0.0046
     12 C          59.8588   88.4020    7.4750 C.ar    1  UNL1        0.0531
     13 C          60.7571   88.8239    8.5996 C.ar    1  UNL1        0.0046
     14 C          61.5882   87.8031    9.3189 C.ar    1  UNL1        0.0032
     15 C          59.0276   89.4227    6.7556 C.2     1  UNL1        0.2427
     16 N          59.6930   90.5441    6.0142 N.am    1  UNL1       -0.3253
     17 O          57.5312   89.3219    6.7777 O.2     1  UNL1       -0.2704
     18 H          60.6751   90.6103    5.9997 H       1  UNL1        0.1453
     19 H          59.1475   91.2140    5.5421 H       1  UNL1        0.1453
     20 C          63.4409   84.6635   15.0438 C.3     1  UNL1        0.0294
     21 C          64.2677   85.8712   14.7153 C.3     1  UNL1        0.0730
     22 N          63.9467   87.1940   15.3455 N.3     1  UNL1       -0.2726
     23 C          63.2232   87.3999   16.6432 C.3     1  UNL1        0.0721
     24 C          63.1222   88.8763   16.8883 C.3     1  UNL1        0.0190
     25 C          63.7833   89.5828   15.7421 C.3     1  UNL1        0.0201
     26 C          63.5332   90.9722   16.2490 C.3     1  UNL1        0.0061
     27 C          64.2567   90.7663   14.9512 C.3     1  UNL1        0.0237
     28 C          64.2929   88.5430   14.7885 C.3     1  UNL1        0.0724
     29 C          64.9477   91.3306   13.7454 C.ar    1  UNL1       -0.0225
     30 C          66.3829   91.7576   13.8348 C.ar    1  UNL1       -0.0043
     31 C          67.0739   92.3219   12.6289 C.ar    1  UNL1        0.0035
     32 C          66.3297   92.4592   11.3338 C.ar    1  UNL1        0.0714
     33 C          64.8946   92.0322   11.2445 C.ar    1  UNL1        0.0035
     34 C          64.2035   91.4679   12.4503 C.ar    1  UNL1       -0.0043
     35 C          67.0208   93.0236   10.1280 C.3     1  UNL1        0.4186
     36 F          67.7118   93.5879    8.9221 F       1  UNL1       -0.1659
     37 F          65.9688   94.0877   10.0232 F       1  UNL1       -0.1659
     38 F          68.0727   91.9594   10.2328 F       1  UNL1       -0.1659
@<TRIPOS>BOND
     1     3     4    1
     2     4     5   ar
     3     5     2    1
     4     2     1    1
     5     1    20    1
     6    20    21    1
     7    21    22    1
     8    22    23    1
     9    23    24    1
    10    25    24    1
    11    25    26    1
    12    26    27    1
    13    27    29    1
    14    29    30   ar
    15    30    31   ar
    16    31    32   ar
    17    32    35    1
    18    35    36    1
    19    35    37    1
    20    35    38    1
    21    32    33   ar
    22    33    34   ar
    23    25    28    1
    24     5     6   ar
    25     6     7   ar
    26     7     8   ar
    27     8     9    1
    28     9    10   ar
    29    10    11   ar
    30    11    12   ar
    31    12    15    1
    32    15    16   am
    33    15    17    2
    34    12    13   ar
    35    13    14   ar
    36     8     4   ar
    37    14     9   ar
    38    28    22    1
    39    27    25    1
    40    34    29   ar
    41    16    18    1
    42    16    19    1
@<TRIPOS>MOLECULE
*****
 38 42 0 0 0
SMALL
GASTEIGER

@<TRIPOS>ATOM
      1 C          60.2866   90.0725    9.2513 C.3     1  UNL1        0.0666
      2 S          59.9481   88.7596    8.6095 S.3     1  UNL1       -0.0756
      3 C          60.5061   87.4880   11.5627 C.3     1  UNL1        0.1340
      4 N          61.0340   86.9605   10.2615 N.ar    1  UNL1       -0.2884
      5 C          60.7775   87.5450    8.9041 C.ar    1  UNL1        0.1932
      6 N          61.4960   86.7016    7.8929 N.ar    1  UNL1       -0.1221
      7 N          62.1966   85.5959    8.6253 N.ar    1  UNL1       -0.1282
      8 C          61.9111   85.7558   10.0892 C.ar    1  UNL1        0.1668
      9 C          62.4142   84.8671   11.1879 C.ar    1  UNL1        0.0360
     10 C          63.0712   85.4665   12.3958 C.ar    1  UNL1        0.0032
     11 C          63.5744   84.5779   13.4945 C.ar    1  UNL1        0.0046
     12 C          63.4205   83.0897   13.3852 C.ar    1  UNL1        0.0531
     13 C          62.7636   82.4903   12.1772 C.ar    1  UNL1        0.0046
     14 C          62.2604   83.3791   11.0786 C.ar    1  UNL1        0.0032
     15 C          63.9237   82.2011   14.4839 C.2     1  UNL1        0.2427
     16 N          64.5793   82.8006   15.6925 N.am    1  UNL1       -0.3253
     17 O          63.7713   80.7129   14.3739 O.2     1  UNL1       -0.2704
     18 H          64.6794   83.7773   15.7646 H       1  UNL1        0.1453
     19 H          64.9096   82.2173   16.4136 H       1  UNL1        0.1453
     20 C          61.5272   90.2023   10.0844 C.3     1  UNL1        0.0294
     21 C          62.6510   91.0827    9.6242 C.3     1  UNL1        0.0730
     22 N          63.6632   91.5844   10.6111 N.3     1  UNL1       -0.2726
     23 C          64.6220   92.7169   10.3922 C.3     1  UNL1        0.0721
     24 C          65.4456   92.8740   11.6360 C.3     1  UNL1        0.0190
     25 C          64.9958   91.8385   12.6236 C.3     1  UNL1        0.0201
     26 C          65.9553   92.2291   13.7083 C.3     1  UNL1        0.0061
     27 C          64.9965   91.0965   13.9273 C.3     1  UNL1        0.0237
     28 C          63.8942   91.0414   11.9902 C.3     1  UNL1        0.0724
     29 C          64.4433   90.0143   14.8064 C.ar    1  UNL1       -0.0225
     30 C          63.6761   90.3726   16.0445 C.ar    1  UNL1       -0.0043
     31 C          63.1230   89.2904   16.9236 C.ar    1  UNL1        0.0035
     32 C          63.3370   87.8498   16.5645 C.ar    1  UNL1        0.0714
     33 C          64.1042   87.4915   15.3263 C.ar    1  UNL1        0.0035
     34 C          64.6574   88.5738   14.4472 C.ar    1  UNL1       -0.0043
     35 C          62.7839   86.7676   17.4435 C.3     1  UNL1        0.4186
     36 F          62.2307   85.6853   18.3226 F       1  UNL1       -0.1659
     37 F          62.7427   85.8350   16.2694 F       1  UNL1       -0.1659
     38 F          62.8250   87.7002   18.6176 F       1  UNL1       -0.1659
@<TRIPOS>BOND
     1     3     4    1
     2     4     5   ar
     3     5     2    1
     4     2     1    1
     5     1    20    1
     6    20    21    1
     7    21    22    1
     8    22    23    1
     9    23    24    1
    10    25    24    1
    11    25    26    1
    12    26    27    1
    13    27    29    1
    14    29    30   ar
    15    30    31   ar
    16    31    32   ar
    17    32    35    1
    18    35    36    1
    19    35    37    1
    20    35    38    1
    21    32    33   ar
    22    33    34   ar
    23    25    28    1
    24     5     6   ar
    25     6     7   ar
    26     7     8   ar
    27     8     9    1
    28     9    10   ar
    29    10    11   ar
    30    11    12   ar
    31    12    15    1
    32    15    16   am
    33    15    17    2
    34    12    13   ar
    35    13    14   ar
    36     8     4   ar
    37    14     9   ar
    38    28    22    1
    39    27    25    1
    40    34    29   ar
    41    16    18    1
    42    16    19    1
