@<TRIPOS>MOLECULE
*****
 42 45 0 0 0
SMALL
GASTEIGER

@<TRIPOS>ATOM
      1 N          63.0097   89.6872   13.6781 N.am    1  UNL1       -0.2927
      2 C          63.9837   89.1356   14.6766 C.2     1  UNL1        0.2508
      3 O          65.3916   89.6518   14.7151 O.2     1  UNL1       -0.2700
      4 H          62.0857   89.3484   13.6529 H       1  UNL1        0.1502
      5 C          63.5499   88.0678   15.6366 C.ar    1  UNL1        0.1068
      6 C          63.1206   88.4374   17.0256 C.ar    1  UNL1        0.0108
      7 C          62.6868   87.3696   17.9856 C.ar    1  UNL1        0.0210
      8 C          62.6822   85.9322   17.5566 C.ar    1  UNL1        0.1021
      9 N          63.1115   85.5626   16.1677 N.ar    1  UNL1       -0.2097
     10 C          63.5454   86.6304   15.2077 C.ar    1  UNL1        0.2340
     11 O          63.9747   86.2609   13.8188 O.3     1  UNL1       -0.4351
     12 C          63.7213   84.8769   13.2987 C.ar    1  UNL1        0.1576
     13 C          64.2789   83.6889   14.0251 C.ar    1  UNL1        0.0384
     14 C          64.0255   82.3050   13.5050 C.ar    1  UNL1        0.0070
     15 C          63.2145   82.1090   12.2584 C.ar    1  UNL1        0.0725
     16 C          62.6569   83.2971   11.5320 C.ar    1  UNL1        0.0183
     17 C          62.9103   84.6810   12.0521 C.ar    1  UNL1        0.0921
     18 CL         62.3527   85.8691   11.3257 Cl      1  UNL1       -0.0791
     19 C          62.9611   80.7251   11.7383 C.3     1  UNL1        0.4186
     20 F          62.7077   79.3413   11.2182 F       1  UNL1       -0.1659
     21 F          62.7839   80.2297   13.1429 F       1  UNL1       -0.1659
     22 F          63.1383   81.2206   10.3336 F       1  UNL1       -0.1659
     23 C          63.4435   90.7550   12.7181 C.3     1  UNL1        0.1789
     24 C          60.3089   88.7289    9.3946 C.3     1  UNL1        0.0791
     25 C          59.9667   88.4303   10.8242 C.3     1  UNL1        0.0392
     26 C          60.9883   89.0998   11.6949 C.3     1  UNL1        0.0949
     27 N          61.9619   89.8122   10.8035 N.am    1  UNL1       -0.2767
     28 C          63.1472   90.6131   11.2546 C.2     1  UNL1        0.2461
     29 O          64.0363   91.2722   10.2420 O.2     1  UNL1       -0.2730
     30 C          61.5420   89.5830    9.3818 C.3     1  UNL1        0.1094
     31 C          59.0218   86.8539    8.1386 C.3     1  UNL1        0.0897
     32 N          59.5511   88.2565    8.1894 N.3     1  UNL1       -0.2699
     33 C          59.3226   89.1865    7.0350 C.3     1  UNL1        0.0897
     34 C          64.1736   91.9647   13.2217 C.3     1  UNL1        0.1715
     35 O          65.6185   92.1676   12.8734 O.3     1  UNL1       -0.3467
     36 C          66.0771   93.4802   12.3107 C.3     1  UNL1        0.1687
     37 C          66.8120   93.5201   11.0037 C.ar    1  UNL1        0.0073
     38 C          67.5603   92.3106   10.5268 C.ar    1  UNL1       -0.0019
     39 C          68.2952   92.3505    9.2198 C.ar    1  UNL1       -0.0002
     40 C          68.2818   93.5998    8.3896 C.ar    1  UNL1       -0.0000
     41 C          67.5336   94.8092    8.8665 C.ar    1  UNL1       -0.0002
     42 C          66.7986   94.7694   10.1735 C.ar    1  UNL1       -0.0019
@<TRIPOS>BOND
     1    31    32    1
     2    32    33    1
     3    24    32    1
     4    24    25    1
     5    25    26    1
     6    26    27    1
     7    27    28   am
     8    28    29    2
     9    28    23    1
    10    23    34    1
    11    34    35    1
    12    35    36    1
    13    36    37    1
    14    37    38   ar
    15    38    39   ar
    16    39    40   ar
    17    40    41   ar
    18    41    42   ar
    19    23     1    1
    20     1     2   am
    21     2     3    2
    22     2     5    1
    23     5     6   ar
    24     6     7   ar
    25     7     8   ar
    26     8     9   ar
    27     9    10   ar
    28    10    11    1
    29    11    12    1
    30    12    13   ar
    31    13    14   ar
    32    14    15   ar
    33    15    19    1
    34    19    20    1
    35    19    21    1
    36    19    22    1
    37    15    16   ar
    38    16    17   ar
    39    17    18    1
    40    27    30    1
    41    30    24    1
    42    42    37   ar
    43    10     5   ar
    44    17    12   ar
    45     1     4    1
@<TRIPOS>MOLECULE
*****
 42 45 0 0 0
SMALL
GASTEIGER

@<TRIPOS>ATOM
      1 N          63.5892   89.2988   13.2962 N.am    1  UNL1       -0.2927
      2 C          63.9052   89.3908   14.7596 C.2     1  UNL1        0.2508
      3 O          64.6207   90.5942   15.2982 O.2     1  UNL1       -0.2700
      4 H          63.1196   88.5090   12.9427 H       1  UNL1        0.1502
      5 C          63.5058   88.2795   15.6845 C.ar    1  UNL1        0.1068
      6 C          63.1037   88.5868   17.0966 C.ar    1  UNL1        0.0108
      7 C          62.7043   87.4755   18.0214 C.ar    1  UNL1        0.0210
      8 C          62.7071   86.0568   17.5343 C.ar    1  UNL1        0.1021
      9 N          63.1092   85.7494   16.1223 N.ar    1  UNL1       -0.2097
     10 C          63.5086   86.8608   15.1974 C.ar    1  UNL1        0.2340
     11 O          63.9108   86.5535   13.7854 O.3     1  UNL1       -0.4351
     12 C          63.6900   85.1798   13.2247 C.ar    1  UNL1        0.1576
     13 C          62.5240   84.9183   12.3180 C.ar    1  UNL1        0.0384
     14 C          62.3032   83.5446   11.7574 C.ar    1  UNL1        0.0070
     15 C          63.2484   82.4325   12.1034 C.ar    1  UNL1        0.0725
     16 C          64.4144   82.6940   13.0101 C.ar    1  UNL1        0.0183
     17 C          64.6352   84.0676   13.5708 C.ar    1  UNL1        0.0921
     18 CL         65.8012   84.3292   14.4775 Cl      1  UNL1       -0.0791
     19 C          63.0276   81.0588   11.5428 C.3     1  UNL1        0.4186
     20 F          62.8068   79.6852   10.9822 F       1  UNL1       -0.1659
     21 F          63.4016   81.5558   10.1779 F       1  UNL1       -0.1659
     22 F          62.6536   80.5619   12.9077 F       1  UNL1       -0.1659
     23 C          63.9886   90.4101   12.3713 C.3     1  UNL1        0.1789
     24 C          60.6317   88.4318    9.2418 C.3     1  UNL1        0.0791
     25 C          60.9687   87.5589   10.4142 C.3     1  UNL1        0.0392
     26 C          61.9794   88.2815   11.2547 C.3     1  UNL1        0.0949
     27 N          62.2670   89.6010   10.6017 N.am    1  UNL1       -0.2767
     28 C          63.2202   90.6444   11.1046 C.2     1  UNL1        0.2461
     29 O          63.4049   91.9220   10.3407 O.2     1  UNL1       -0.2730
     30 C          61.4341   89.6939    9.3577 C.3     1  UNL1        0.1094
     31 C          59.3623   89.1119    7.0793 C.3     1  UNL1        0.0897
     32 N          59.6625   88.1008    8.1458 N.3     1  UNL1       -0.2699
     33 C          58.9935   86.7586    8.1164 C.3     1  UNL1        0.0897
     34 C          65.1564   91.2873   12.7132 C.3     1  UNL1        0.1715
     35 O          64.9819   92.7756   12.7815 O.3     1  UNL1       -0.3467
     36 C          66.1705   93.6778   12.6293 C.3     1  UNL1        0.1687
     37 C          66.6570   94.0527   11.2608 C.ar    1  UNL1        0.0073
     38 C          66.4721   95.4533   10.7567 C.ar    1  UNL1       -0.0019
     39 C          66.9587   95.8282    9.3882 C.ar    1  UNL1       -0.0002
     40 C          67.6301   94.8025    8.5239 C.ar    1  UNL1       -0.0000
     41 C          67.8150   93.4019    9.0280 C.ar    1  UNL1       -0.0002
     42 C          67.3285   93.0270   10.3965 C.ar    1  UNL1       -0.0019
@<TRIPOS>BOND
     1    31    32    1
     2    32    33    1
     3    24    32    1
     4    24    25    1
     5    25    26    1
     6    26    27    1
     7    27    28   am
     8    28    29    2
     9    28    23    1
    10    23    34    1
    11    34    35    1
    12    35    36    1
    13    36    37    1
    14    37    38   ar
    15    38    39   ar
    16    39    40   ar
    17    40    41   ar
    18    41    42   ar
    19    23     1    1
    20     1     2   am
    21     2     3    2
    22     2     5    1
    23     5     6   ar
    24     6     7   ar
    25     7     8   ar
    26     8     9   ar
    27     9    10   ar
    28    10    11    1
    29    11    12    1
    30    12    13   ar
    31    13    14   ar
    32    14    15   ar
    33    15    19    1
    34    19    20    1
    35    19    21    1
    36    19    22    1
    37    15    16   ar
    38    16    17   ar
    39    17    18    1
    40    27    30    1
    41    30    24    1
    42    42    37   ar
    43    10     5   ar
    44    17    12   ar
    45     1     4    1
@<TRIPOS>MOLECULE
*****
 42 45 0 0 0
SMALL
GASTEIGER

@<TRIPOS>ATOM
      1 N          63.0563   89.0997   12.0406 N.am    1  UNL1       -0.2927
      2 C          61.6176   88.9847   11.6320 C.2     1  UNL1        0.2508
      3 O          60.5547   89.6878   12.4232 O.2     1  UNL1       -0.2700
      4 H          63.7538   88.6382   11.5212 H       1  UNL1        0.1502
      5 C          61.2417   88.1668   10.4321 C.ar    1  UNL1        0.1068
      6 C          60.2390   88.6942    9.4490 C.ar    1  UNL1        0.0108
      7 C          59.8631   87.8762    8.2492 C.ar    1  UNL1        0.0210
      8 C          60.4900   86.5308    8.0324 C.ar    1  UNL1        0.1021
      9 N          61.4927   86.0034    9.0155 N.ar    1  UNL1       -0.2097
     10 C          61.8685   86.8214   10.2154 C.ar    1  UNL1        0.2340
     11 O          62.8712   86.2940   11.1984 O.3     1  UNL1       -0.4351
     12 C          62.7757   84.8765   11.6798 C.ar    1  UNL1        0.1576
     13 C          62.1832   84.5797   13.0255 C.ar    1  UNL1        0.0384
     14 C          62.0877   83.1622   13.5069 C.ar    1  UNL1        0.0070
     15 C          62.5847   82.0416   12.6425 C.ar    1  UNL1        0.0725
     16 C          63.1772   82.3384   11.2968 C.ar    1  UNL1        0.0183
     17 C          63.2727   83.7558   10.8155 C.ar    1  UNL1        0.0921
     18 CL         63.8652   84.0526    9.4698 Cl      1  UNL1       -0.0791
     19 C          62.4892   80.6241   13.1238 C.3     1  UNL1        0.4186
     20 F          62.3937   79.2067   13.6052 F       1  UNL1       -0.1659
     21 F          62.7786   80.1335   11.7363 F       1  UNL1       -0.1659
     22 F          62.1998   81.1148   14.5114 F       1  UNL1       -0.1659
     23 C          63.4321   89.9177   13.2404 C.3     1  UNL1        0.1789
     24 C          66.0792   93.3384   10.7368 C.3     1  UNL1        0.0791
     25 C          64.7705   92.9832   10.0954 C.3     1  UNL1        0.0392
     26 C          64.0972   91.9547   10.9550 C.3     1  UNL1        0.0949
     27 N          64.9897   91.6743   12.1276 N.am    1  UNL1       -0.2767
     28 C          64.7068   90.7083   13.2397 C.2     1  UNL1        0.2461
     29 O          65.6987   90.5329   14.3512 O.2     1  UNL1       -0.2730
     30 C          66.2146   92.5294   11.9927 C.3     1  UNL1        0.1094
     31 C          68.2567   93.8554    9.4173 C.3     1  UNL1        0.0897
     32 N          67.0772   94.3287   10.2140 N.3     1  UNL1       -0.2699
     33 C          66.8957   95.7923   10.4879 C.3     1  UNL1        0.0897
     34 C          62.5333   89.9450   14.4409 C.3     1  UNL1        0.1715
     35 O          63.0992   90.2573   15.7946 O.3     1  UNL1       -0.3467
     36 C          63.0880   89.2130   16.8713 C.3     1  UNL1        0.1687
     37 C          63.3653   87.7794   16.5283 C.ar    1  UNL1        0.0073
     38 C          62.6897   86.6808   17.2944 C.ar    1  UNL1       -0.0019
     39 C          62.9669   85.2471   16.9514 C.ar    1  UNL1       -0.0002
     40 C          63.9197   84.9119   15.8425 C.ar    1  UNL1       -0.0000
     41 C          64.5953   86.0104   15.0765 C.ar    1  UNL1       -0.0002
     42 C          64.3181   87.4442   15.4194 C.ar    1  UNL1       -0.0019
@<TRIPOS>BOND
     1    31    32    1
     2    32    33    1
     3    24    32    1
     4    24    25    1
     5    25    26    1
     6    26    27    1
     7    27    28   am
     8    28    29    2
     9    28    23    1
    10    23    34    1
    11    34    35    1
    12    35    36    1
    13    36    37    1
    14    37    38   ar
    15    38    39   ar
    16    39    40   ar
    17    40    41   ar
    18    41    42   ar
    19    23     1    1
    20     1     2   am
    21     2     3    2
    22     2     5    1
    23     5     6   ar
    24     6     7   ar
    25     7     8   ar
    26     8     9   ar
    27     9    10   ar
    28    10    11    1
    29    11    12    1
    30    12    13   ar
    31    13    14   ar
    32    14    15   ar
    33    15    19    1
    34    19    20    1
    35    19    21    1
    36    19    22    1
    37    15    16   ar
    38    16    17   ar
    39    17    18    1
    40    27    30    1
    41    30    24    1
    42    42    37   ar
    43    10     5   ar
    44    17    12   ar
    45     1     4    1
@<TRIPOS>MOLECULE
*****
 42 45 0 0 0
SMALL
GASTEIGER

@<TRIPOS>ATOM
      1 N          65.1148   89.9112   13.8257 N.am    1  UNL1       -0.2927
      2 C          65.0846   91.1250   14.7064 C.2     1  UNL1        0.2508
      3 O          63.7849   91.5983   15.2869 O.2     1  UNL1       -0.2700
      4 H          65.9678   89.6006   13.4447 H       1  UNL1        0.1502
      5 C          66.3540   91.8656   15.0067 C.ar    1  UNL1        0.1068
      6 C          66.6544   92.3004   16.4106 C.ar    1  UNL1        0.0108
      7 C          67.9238   93.0411   16.7108 C.ar    1  UNL1        0.0210
      8 C          68.8927   93.3468   15.6072 C.ar    1  UNL1        0.1021
      9 N          68.5922   92.9120   14.2035 N.ar    1  UNL1       -0.2097
     10 C          67.3228   92.1714   13.9032 C.ar    1  UNL1        0.2340
     11 O          67.0223   91.7366   12.4995 O.3     1  UNL1       -0.4351
     12 C          66.8651   92.7604   11.4145 C.ar    1  UNL1        0.1576
     13 C          65.8609   93.8645   11.5650 C.ar    1  UNL1        0.0384
     14 C          65.7037   94.8884   10.4801 C.ar    1  UNL1        0.0070
     15 C          66.5507   94.8081    9.2447 C.ar    1  UNL1        0.0725
     16 C          67.5549   93.7040    9.0942 C.ar    1  UNL1        0.0183
     17 C          67.7121   92.6802   10.1791 C.ar    1  UNL1        0.0921
     18 CL         68.7163   91.5760   10.0287 Cl      1  UNL1       -0.0791
     19 C          66.3935   95.8319    8.1598 C.3     1  UNL1        0.4186
     20 F          66.2363   96.8557    7.0748 F       1  UNL1       -0.1659
     21 F          67.3185   95.0430    7.2813 F       1  UNL1       -0.1659
     22 F          65.4684   96.6208    9.0383 F       1  UNL1       -0.1659
     23 C          63.8454   89.1706   13.5255 C.3     1  UNL1        0.1789
     24 C          61.1340   87.6133    9.6268 C.3     1  UNL1        0.0791
     25 C          61.8154   86.5106   10.3817 C.3     1  UNL1        0.0392
     26 C          62.5832   87.1287   11.5124 C.3     1  UNL1        0.0949
     27 N          62.3764   88.6133   11.4563 N.am    1  UNL1       -0.2767
     28 C          62.9624   89.6214   12.3999 C.2     1  UNL1        0.2461
     29 O          62.6652   91.0804   12.2180 O.2     1  UNL1       -0.2730
     30 C          61.4807   88.9128   10.2910 C.3     1  UNL1        0.1094
     31 C          59.6410   88.6476    7.7691 C.3     1  UNL1        0.0897
     32 N          60.2594   87.4459    8.4197 N.3     1  UNL1       -0.2699
     33 C          60.0033   86.0767    7.8632 C.3     1  UNL1        0.0897
     34 C          63.4591   87.9791   14.3507 C.3     1  UNL1        0.1715
     35 O          64.3785   86.7970   14.4376 O.3     1  UNL1       -0.3467
     36 C          63.9390   85.5564   15.1572 C.3     1  UNL1        0.1687
     37 C          63.5880   84.3229   14.3794 C.ar    1  UNL1        0.0073
     38 C          62.5641   83.3654   14.9135 C.ar    1  UNL1       -0.0019
     39 C          62.2131   82.1319   14.1357 C.ar    1  UNL1       -0.0002
     40 C          62.8858   81.8557   12.8237 C.ar    1  UNL1       -0.0000
     41 C          63.9095   82.8130   12.2896 C.ar    1  UNL1       -0.0002
     42 C          64.2607   84.0466   13.0674 C.ar    1  UNL1       -0.0019
@<TRIPOS>BOND
     1    31    32    1
     2    32    33    1
     3    24    32    1
     4    24    25    1
     5    25    26    1
     6    26    27    1
     7    27    28   am
     8    28    29    2
     9    28    23    1
    10    23    34    1
    11    34    35    1
    12    35    36    1
    13    36    37    1
    14    37    38   ar
    15    38    39   ar
    16    39    40   ar
    17    40    41   ar
    18    41    42   ar
    19    23     1    1
    20     1     2   am
    21     2     3    2
    22     2     5    1
    23     5     6   ar
    24     6     7   ar
    25     7     8   ar
    26     8     9   ar
    27     9    10   ar
    28    10    11    1
    29    11    12    1
    30    12    13   ar
    31    13    14   ar
    32    14    15   ar
    33    15    19    1
    34    19    20    1
    35    19    21    1
    36    19    22    1
    37    15    16   ar
    38    16    17   ar
    39    17    18    1
    40    27    30    1
    41    30    24    1
    42    42    37   ar
    43    10     5   ar
    44    17    12   ar
    45     1     4    1
@<TRIPOS>MOLECULE
*****
 42 45 0 0 0
SMALL
GASTEIGER

@<TRIPOS>ATOM
      1 N          63.2370   89.4305   13.2473 N.am    1  UNL1       -0.2927
      2 C          63.7631   89.4518   14.6518 C.2     1  UNL1        0.2508
      3 O          64.5909   90.6098   15.1251 O.2     1  UNL1       -0.2700
      4 H          62.6937   88.6705   12.9367 H       1  UNL1        0.1502
      5 C          63.4614   88.3153   15.5831 C.ar    1  UNL1        0.1068
      6 C          63.0753   88.5936   17.0056 C.ar    1  UNL1        0.0108
      7 C          62.7736   87.4571   17.9369 C.ar    1  UNL1        0.0210
      8 C          62.8581   86.0422   17.4457 C.ar    1  UNL1        0.1021
      9 N          63.2443   85.7640   16.0232 N.ar    1  UNL1       -0.2097
     10 C          63.5460   86.9006   15.0919 C.ar    1  UNL1        0.2340
     11 O          63.9321   86.6223   13.6695 O.3     1  UNL1       -0.4351
     12 C          63.7100   85.2588   13.0850 C.ar    1  UNL1        0.1576
     13 C          62.5728   85.0262   12.1350 C.ar    1  UNL1        0.0384
     14 C          62.3507   83.6627   11.5504 C.ar    1  UNL1        0.0070
     15 C          63.2659   82.5318   11.9160 C.ar    1  UNL1        0.0725
     16 C          64.4031   82.7645   12.8661 C.ar    1  UNL1        0.0183
     17 C          64.6252   84.1280   13.4505 C.ar    1  UNL1        0.0921
     18 CL         65.7625   84.3606   14.4006 Cl      1  UNL1       -0.0791
     19 C          63.0438   81.1684   11.3315 C.3     1  UNL1        0.4186
     20 F          62.8217   79.8049   10.7471 F       1  UNL1       -0.1659
     21 F          62.3737   80.7333   12.6010 F       1  UNL1       -0.1659
     22 F          63.7139   81.6034   10.0620 F       1  UNL1       -0.1659
     23 C          63.5386   90.5670   12.3160 C.3     1  UNL1        0.1789
     24 C          60.5099   88.1308    9.1746 C.3     1  UNL1        0.0791
     25 C          60.6856   87.4593   10.5044 C.3     1  UNL1        0.0392
     26 C          61.6127   88.3013   11.3299 C.3     1  UNL1        0.0949
     27 N          62.0099   89.4932   10.5104 N.am    1  UNL1       -0.2767
     28 C          62.9277   90.5968   10.9464 C.2     1  UNL1        0.2461
     29 O          63.2343   91.7300   10.0128 O.2     1  UNL1       -0.2730
     30 C          61.3284   89.3878    9.1784 C.3     1  UNL1        0.1094
     31 C          58.9226   88.6069    7.1736 C.3     1  UNL1        0.0897
     32 N          59.6642   87.6327    8.0403 N.3     1  UNL1       -0.2699
     33 C          59.5601   86.1605    7.7725 C.3     1  UNL1        0.0897
     34 C          64.4513   91.6737   12.7543 C.3     1  UNL1        0.1715
     35 O          65.1913   92.4848   11.7321 O.3     1  UNL1       -0.3467
     36 C          66.5097   93.1091   12.0814 C.3     1  UNL1        0.1687
     37 C          67.1271   92.8556   13.4247 C.ar    1  UNL1        0.0073
     38 C          66.5605   93.5150   14.6471 C.ar    1  UNL1       -0.0019
     39 C          67.1780   93.2615   15.9904 C.ar    1  UNL1       -0.0002
     40 C          68.3620   92.3486   16.1114 C.ar    1  UNL1       -0.0000
     41 C          68.9287   91.6893   14.8890 C.ar    1  UNL1       -0.0002
     42 C          68.3112   91.9428   13.5457 C.ar    1  UNL1       -0.0019
@<TRIPOS>BOND
     1    31    32    1
     2    32    33    1
     3    24    32    1
     4    24    25    1
     5    25    26    1
     6    26    27    1
     7    27    28   am
     8    28    29    2
     9    28    23    1
    10    23    34    1
    11    34    35    1
    12    35    36    1
    13    36    37    1
    14    37    38   ar
    15    38    39   ar
    16    39    40   ar
    17    40    41   ar
    18    41    42   ar
    19    23     1    1
    20     1     2   am
    21     2     3    2
    22     2     5    1
    23     5     6   ar
    24     6     7   ar
    25     7     8   ar
    26     8     9   ar
    27     9    10   ar
    28    10    11    1
    29    11    12    1
    30    12    13   ar
    31    13    14   ar
    32    14    15   ar
    33    15    19    1
    34    19    20    1
    35    19    21    1
    36    19    22    1
    37    15    16   ar
    38    16    17   ar
    39    17    18    1
    40    27    30    1
    41    30    24    1
    42    42    37   ar
    43    10     5   ar
    44    17    12   ar
    45     1     4    1
@<TRIPOS>MOLECULE
*****
 42 45 0 0 0
SMALL
GASTEIGER

@<TRIPOS>ATOM
      1 N          63.8410   88.6213   14.1716 N.am    1  UNL1       -0.2927
      2 C          62.7711   89.4643   13.5435 C.2     1  UNL1        0.2508
      3 O          61.4334   89.5971   14.2093 O.2     1  UNL1       -0.2700
      4 H          64.7189   88.5341   13.7346 H       1  UNL1        0.1502
      5 C          63.0387   90.1746   12.2497 C.ar    1  UNL1        0.1068
      6 C          63.9416   91.3722   12.2244 C.ar    1  UNL1        0.0108
      7 C          64.2092   92.0824   10.9306 C.ar    1  UNL1        0.0210
      8 C          63.5739   91.5952    9.6622 C.ar    1  UNL1        0.1021
      9 N          62.6710   90.3977    9.6875 N.ar    1  UNL1       -0.2097
     10 C          62.4034   89.6874   10.9813 C.ar    1  UNL1        0.2340
     11 O          61.5005   88.4898   11.0067 O.3     1  UNL1       -0.4351
     12 C          61.5239   87.5087    9.8722 C.ar    1  UNL1        0.1576
     13 C          62.8068   86.8292    9.4947 C.ar    1  UNL1        0.0384
     14 C          62.8302   85.8480    8.3603 C.ar    1  UNL1        0.0070
     15 C          61.5707   85.5464    7.6034 C.ar    1  UNL1        0.0725
     16 C          60.2879   86.2260    7.9810 C.ar    1  UNL1        0.0183
     17 C          60.2645   87.2071    9.1154 C.ar    1  UNL1        0.0921
     18 CL         58.9816   87.8866    9.4930 Cl      1  UNL1       -0.0791
     19 C          61.5941   84.5653    6.4691 C.3     1  UNL1        0.4186
     20 F          61.6175   83.5842    5.3347 F       1  UNL1       -0.1659
     21 F          63.0938   84.5640    6.5012 F       1  UNL1       -0.1659
     22 F          60.0945   84.5667    6.4370 F       1  UNL1       -0.1659
     23 C          63.5734   87.9110   15.4653 C.3     1  UNL1        0.1789
     24 C          63.4689   83.6296   12.8895 C.3     1  UNL1        0.0791
     25 C          63.1287   84.8442   12.0777 C.3     1  UNL1        0.0392
     26 C          63.2017   86.0401   12.9800 C.3     1  UNL1        0.0949
     27 N          63.5871   85.5647   14.3495 N.am    1  UNL1       -0.2767
     28 C          63.7744   86.4277   15.5621 C.2     1  UNL1        0.2461
     29 O          64.1627   85.8073   16.8714 O.2     1  UNL1       -0.2730
     30 C          63.7522   84.0749   14.2936 C.3     1  UNL1        0.1094
     31 C          63.6040   81.9494   10.9124 C.3     1  UNL1        0.0897
     32 N          63.5174   82.2175   12.3857 N.3     1  UNL1       -0.2699
     33 C          63.4792   81.0735   13.3552 C.3     1  UNL1        0.0897
     34 C          63.1048   88.6840   16.6623 C.3     1  UNL1        0.1715
     35 O          63.7555   89.9890   17.0142 O.3     1  UNL1       -0.3467
     36 C          63.9249   91.0491   15.9667 C.3     1  UNL1        0.1687
     37 C          65.2943   91.5638   15.6352 C.ar    1  UNL1        0.0073
     38 C          66.0004   91.0782   14.4040 C.ar    1  UNL1       -0.0019
     39 C          67.3697   91.5929   14.0725 C.ar    1  UNL1       -0.0002
     40 C          68.0330   92.5933   14.9721 C.ar    1  UNL1       -0.0000
     41 C          67.3270   93.0789   16.2032 C.ar    1  UNL1       -0.0002
     42 C          65.9576   92.5642   16.5348 C.ar    1  UNL1       -0.0019
@<TRIPOS>BOND
     1    31    32    1
     2    32    33    1
     3    24    32    1
     4    24    25    1
     5    25    26    1
     6    26    27    1
     7    27    28   am
     8    28    29    2
     9    28    23    1
    10    23    34    1
    11    34    35    1
    12    35    36    1
    13    36    37    1
    14    37    38   ar
    15    38    39   ar
    16    39    40   ar
    17    40    41   ar
    18    41    42   ar
    19    23     1    1
    20     1     2   am
    21     2     3    2
    22     2     5    1
    23     5     6   ar
    24     6     7   ar
    25     7     8   ar
    26     8     9   ar
    27     9    10   ar
    28    10    11    1
    29    11    12    1
    30    12    13   ar
    31    13    14   ar
    32    14    15   ar
    33    15    19    1
    34    19    20    1
    35    19    21    1
    36    19    22    1
    37    15    16   ar
    38    16    17   ar
    39    17    18    1
    40    27    30    1
    41    30    24    1
    42    42    37   ar
    43    10     5   ar
    44    17    12   ar
    45     1     4    1
