@<TRIPOS>MOLECULE
*****
 22 23 0 0 0
SMALL
GASTEIGER

@<TRIPOS>ATOM
      1 O          65.2403   92.3107   14.1165 O.3     1  UNL1       -0.4728
      2 C          64.5289   91.1508   13.4851 C.ar    1  UNL1        0.1387
      3 C          64.5574   89.8041   14.1450 C.ar    1  UNL1        0.0369
      4 C          63.8460   88.6443   13.5136 C.ar    1  UNL1        0.0031
      5 C          63.1062   88.8311   12.2223 C.ar    1  UNL1        0.0007
      6 C          62.3948   87.6713   11.5908 C.ar    1  UNL1        0.0067
      7 C          61.6549   87.8581   10.2995 C.ar    1  UNL1        0.0346
      8 BR         60.9436   86.6983    9.6680 Br      1  UNL1       -0.0490
      9 C          61.6264   89.2048    9.6395 C.ar    1  UNL1        0.0067
     10 C          62.3378   90.3647   10.2709 C.ar    1  UNL1        0.0006
     11 C          63.0777   90.1778   11.5623 C.ar    1  UNL1        0.0030
     12 C          63.7891   91.3376   12.1937 C.ar    1  UNL1        0.0369
     13 C          66.7173   92.2380   14.3675 C.3     1  UNL1        0.2358
     14 C          67.6690   92.1176   13.2144 C.3     1  UNL1        0.1700
     15 O          69.1373   91.9461   13.4685 O.3     1  UNL1       -0.3793
     16 H          69.6070   91.8847   12.6220 H       1  UNL1        0.2106
     17 C          67.1523   92.1687   11.8070 C.3     1  UNL1        0.1056
     18 N          67.0925   93.4777   11.0771 N.3     1  UNL1       -0.2707
     19 C          66.3137   94.6229   11.6534 C.3     1  UNL1        0.0897
     20 C          68.8080   92.6113    9.3288 C.3     1  UNL1        0.0173
     21 C          67.8114   93.6416    9.7708 C.3     1  UNL1        0.0577
     22 C          67.5338   94.8358    8.9066 C.3     1  UNL1        0.0173
@<TRIPOS>BOND
     1    20    21    1
     2    21    22    1
     3    21    18    1
     4    18    19    1
     5    18    17    1
     6    17    14    1
     7    14    15    1
     8    14    13    1
     9    13     1    1
    10     1     2    1
    11     2     3   ar
    12     3     4   ar
    13     4     5   ar
    14     5     6   ar
    15     6     7   ar
    16     7     8    1
    17     7     9   ar
    18     9    10   ar
    19    10    11   ar
    20    11    12   ar
    21    12     2   ar
    22    11     5   ar
    23    15    16    1
@<TRIPOS>MOLECULE
*****
 22 23 0 0 0
SMALL
GASTEIGER

@<TRIPOS>ATOM
      1 O          62.1579   89.7903   10.6843 O.3     1  UNL1       -0.4728
      2 C          63.1450   90.2099   11.7330 C.ar    1  UNL1        0.1387
      3 C          63.3503   89.3608   12.9523 C.ar    1  UNL1        0.0369
      4 C          64.3374   89.7804   14.0010 C.ar    1  UNL1        0.0031
      5 C          65.1192   91.0490   13.8302 C.ar    1  UNL1        0.0007
      6 C          66.1063   91.4686   14.8789 C.ar    1  UNL1        0.0067
      7 C          66.8881   92.7372   14.7081 C.ar    1  UNL1        0.0346
      8 BR         67.8752   93.1568   15.7568 Br      1  UNL1       -0.0490
      9 C          66.6829   93.5864   13.4887 C.ar    1  UNL1        0.0067
     10 C          65.6958   93.1668   12.4401 C.ar    1  UNL1        0.0006
     11 C          64.9140   91.8981   12.6109 C.ar    1  UNL1        0.0030
     12 C          63.9269   91.4785   11.5622 C.ar    1  UNL1        0.0369
     13 C          62.1077   88.3616   10.2304 C.3     1  UNL1        0.2358
     14 C          61.0868   87.4266   10.8079 C.3     1  UNL1        0.1700
     15 O          59.9954   87.9589   11.6884 O.3     1  UNL1       -0.3793
     16 H          59.4256   87.2280   11.9748 H       1  UNL1        0.2106
     17 C          61.1575   85.9591   10.5049 C.3     1  UNL1        0.1056
     18 N          62.3997   85.1847   10.8323 N.3     1  UNL1       -0.2707
     19 C          62.8484   85.0542   12.2576 C.3     1  UNL1        0.0897
     20 C          64.0276   83.3283   10.0237 C.3     1  UNL1        0.0173
     21 C          63.1932   84.5407    9.7342 C.3     1  UNL1        0.0577
     22 C          63.1522   85.1090    8.3467 C.3     1  UNL1        0.0173
@<TRIPOS>BOND
     1    20    21    1
     2    21    22    1
     3    21    18    1
     4    18    19    1
     5    18    17    1
     6    17    14    1
     7    14    15    1
     8    14    13    1
     9    13     1    1
    10     1     2    1
    11     2     3   ar
    12     3     4   ar
    13     4     5   ar
    14     5     6   ar
    15     6     7   ar
    16     7     8    1
    17     7     9   ar
    18     9    10   ar
    19    10    11   ar
    20    11    12   ar
    21    12     2   ar
    22    11     5   ar
    23    15    16    1
@<TRIPOS>MOLECULE
*****
 22 23 0 0 0
SMALL
GASTEIGER

@<TRIPOS>ATOM
      1 O          64.6316   91.9901   14.1632 O.3     1  UNL1       -0.4728
      2 C          64.2066   90.6391   13.6692 C.ar    1  UNL1        0.1387
      3 C          63.4334   90.5176   12.3896 C.ar    1  UNL1        0.0369
      4 C          63.0084   89.1666   11.8955 C.ar    1  UNL1        0.0031
      5 C          63.3565   87.9371   12.6811 C.ar    1  UNL1        0.0007
      6 C          62.9314   86.5861   12.1870 C.ar    1  UNL1        0.0067
      7 C          63.2796   85.3566   12.9725 C.ar    1  UNL1        0.0346
      8 BR         62.8545   84.0056   12.4785 Br      1  UNL1       -0.0490
      9 C          64.0528   85.4781   14.2522 C.ar    1  UNL1        0.0067
     10 C          64.4778   86.8291   14.7462 C.ar    1  UNL1        0.0006
     11 C          64.1297   88.0586   13.9606 C.ar    1  UNL1        0.0030
     12 C          64.5547   89.4096   14.4547 C.ar    1  UNL1        0.0369
     13 C          66.0895   92.3323   14.2505 C.3     1  UNL1        0.2358
     14 C          66.9620   92.2124   13.0362 C.3     1  UNL1        0.1700
     15 O          68.3990   91.8081   13.1823 O.3     1  UNL1       -0.3793
     16 H          68.8172   91.7788   12.3075 H       1  UNL1        0.2106
     17 C          66.3973   92.4968   11.6759 C.3     1  UNL1        0.1056
     18 N          66.8017   93.7404   10.9411 N.3     1  UNL1       -0.2707
     19 C          66.3562   95.0836   11.4381 C.3     1  UNL1        0.0897
     20 C          67.6763   94.7693    8.7215 C.3     1  UNL1        0.0173
     21 C          67.6517   93.6406    9.7091 C.3     1  UNL1        0.0577
     22 C          68.4770   92.4121    9.4647 C.3     1  UNL1        0.0173
@<TRIPOS>BOND
     1    20    21    1
     2    21    22    1
     3    21    18    1
     4    18    19    1
     5    18    17    1
     6    17    14    1
     7    14    15    1
     8    14    13    1
     9    13     1    1
    10     1     2    1
    11     2     3   ar
    12     3     4   ar
    13     4     5   ar
    14     5     6   ar
    15     6     7   ar
    16     7     8    1
    17     7     9   ar
    18     9    10   ar
    19    10    11   ar
    20    11    12   ar
    21    12     2   ar
    22    11     5   ar
    23    15    16    1
@<TRIPOS>MOLECULE
*****
 22 23 0 0 0
SMALL
GASTEIGER

@<TRIPOS>ATOM
      1 O          62.3281   90.2373    9.9568 O.3     1  UNL1       -0.4728
      2 C          63.1709   90.5064   11.1681 C.ar    1  UNL1        0.1387
      3 C          63.1097   89.5791   12.3455 C.ar    1  UNL1        0.0369
      4 C          63.9526   89.8483   13.5568 C.ar    1  UNL1        0.0031
      5 C          64.8566   91.0447   13.5907 C.ar    1  UNL1        0.0007
      6 C          65.6994   91.3139   14.8020 C.ar    1  UNL1        0.0067
      7 C          66.6034   92.5103   14.8359 C.ar    1  UNL1        0.0346
      8 BR         67.4462   92.7794   16.0472 Br      1  UNL1       -0.0490
      9 C          66.6647   93.4377   13.6585 C.ar    1  UNL1        0.0067
     10 C          65.8219   93.1686   12.4472 C.ar    1  UNL1        0.0006
     11 C          64.9178   91.9720   12.4133 C.ar    1  UNL1        0.0030
     12 C          64.0750   91.7029   11.2020 C.ar    1  UNL1        0.0369
     13 C          60.8908   89.8394   10.1166 C.3     1  UNL1        0.2358
     14 C          60.2199   89.0117    9.0608 C.3     1  UNL1        0.1700
     15 O          59.9164   89.6099    7.7191 O.3     1  UNL1       -0.3793
     16 H          59.4855   88.9455    7.1589 H       1  UNL1        0.2106
     17 C          59.8523   87.5857    9.3466 C.3     1  UNL1        0.1056
     18 N          60.6436   86.4696    8.7317 N.3     1  UNL1       -0.2707
     19 C          60.1545   85.8051    7.4791 C.3     1  UNL1        0.0897
     20 C          62.1237   86.1801   10.8473 C.3     1  UNL1        0.0173
     21 C          61.9240   86.0180    9.3695 C.3     1  UNL1        0.0577
     22 C          63.0046   85.4043    8.5296 C.3     1  UNL1        0.0173
@<TRIPOS>BOND
     1    20    21    1
     2    21    22    1
     3    21    18    1
     4    18    19    1
     5    18    17    1
     6    17    14    1
     7    14    15    1
     8    14    13    1
     9    13     1    1
    10     1     2    1
    11     2     3   ar
    12     3     4   ar
    13     4     5   ar
    14     5     6   ar
    15     6     7   ar
    16     7     8    1
    17     7     9   ar
    18     9    10   ar
    19    10    11   ar
    20    11    12   ar
    21    12     2   ar
    22    11     5   ar
    23    15    16    1
@<TRIPOS>MOLECULE
*****
 22 23 0 0 0
SMALL
GASTEIGER

@<TRIPOS>ATOM
      1 O          64.4809   91.5477   13.8276 O.3     1  UNL1       -0.4728
      2 C          63.8116   90.7625   12.7387 C.ar    1  UNL1        0.1387
      3 C          63.3983   91.4441   11.4681 C.ar    1  UNL1        0.0369
      4 C          62.7291   90.6590   10.3792 C.ar    1  UNL1        0.0031
      5 C          62.4731   89.1922   10.5610 C.ar    1  UNL1        0.0007
      6 C          61.8038   88.4071    9.4721 C.ar    1  UNL1        0.0067
      7 C          61.5479   86.9403    9.6539 C.ar    1  UNL1        0.0346
      8 BR         60.8786   86.1552    8.5650 Br      1  UNL1       -0.0490
      9 C          61.9612   86.2586   10.9246 C.ar    1  UNL1        0.0067
     10 C          62.6305   87.0438   12.0134 C.ar    1  UNL1        0.0006
     11 C          62.8864   88.5106   11.8316 C.ar    1  UNL1        0.0030
     12 C          63.5557   89.2958   12.9205 C.ar    1  UNL1        0.0369
     13 C          65.9640   91.4418   14.0255 C.3     1  UNL1        0.2358
     14 C          66.8816   92.4230   13.3581 C.3     1  UNL1        0.1700
     15 O          68.3673   92.2835   13.5102 O.3     1  UNL1       -0.3793
     16 H          68.8106   92.9932   13.0196 H       1  UNL1        0.2106
     17 C          66.3135   93.5436   12.5386 C.3     1  UNL1        0.1056
     18 N          66.7883   93.7599   11.1323 N.3     1  UNL1       -0.2707
     19 C          67.2550   92.5949   10.3108 C.3     1  UNL1        0.0897
     20 C          67.4883   95.3988    9.2418 C.3     1  UNL1        0.0173
     21 C          66.7965   95.1412   10.5476 C.3     1  UNL1        0.0577
     22 C          66.1127   96.2649   11.2685 C.3     1  UNL1        0.0173
@<TRIPOS>BOND
     1    20    21    1
     2    21    22    1
     3    21    18    1
     4    18    19    1
     5    18    17    1
     6    17    14    1
     7    14    15    1
     8    14    13    1
     9    13     1    1
    10     1     2    1
    11     2     3   ar
    12     3     4   ar
    13     4     5   ar
    14     5     6   ar
    15     6     7   ar
    16     7     8    1
    17     7     9   ar
    18     9    10   ar
    19    10    11   ar
    20    11    12   ar
    21    12     2   ar
    22    11     5   ar
    23    15    16    1
@<TRIPOS>MOLECULE
*****
 22 23 0 0 0
SMALL
GASTEIGER

@<TRIPOS>ATOM
      1 O          63.4023   90.9786   12.6088 O.3     1  UNL1       -0.4728
      2 C          63.5353   89.5271   12.9630 C.ar    1  UNL1        0.1387
      3 C          64.2511   89.1238   14.2180 C.ar    1  UNL1        0.0369
      4 C          64.3840   87.6723   14.5721 C.ar    1  UNL1        0.0031
      5 C          63.8012   86.6241   13.6713 C.ar    1  UNL1        0.0007
      6 C          63.9342   85.1725   14.0255 C.ar    1  UNL1        0.0067
      7 C          63.3513   84.1243   13.1247 C.ar    1  UNL1        0.0346
      8 BR         63.4843   82.6728   13.4789 Br      1  UNL1       -0.0490
      9 C          62.6355   84.5276   11.8697 C.ar    1  UNL1        0.0067
     10 C          62.5025   85.9791   11.5155 C.ar    1  UNL1        0.0006
     11 C          63.0854   87.0273   12.4164 C.ar    1  UNL1        0.0030
     12 C          62.9524   88.4788   12.0622 C.ar    1  UNL1        0.0369
     13 C          64.5211   91.6833   11.9006 C.3     1  UNL1        0.2358
     14 C          65.6239   92.3231   12.6908 C.3     1  UNL1        0.1700
     15 O          65.4359   92.5996   14.1530 O.3     1  UNL1       -0.3793
     16 H          66.2379   93.0123   14.5098 H       1  UNL1        0.2106
     17 C          66.9148   92.6863   12.0187 C.3     1  UNL1        0.1056
     18 N          66.9419   93.7712   10.9831 N.3     1  UNL1       -0.2707
     19 C          66.3127   95.1014   11.2738 C.3     1  UNL1        0.0897
     20 C          67.5170   94.5631    8.5764 C.3     1  UNL1        0.0173
     21 C          67.5981   93.5256    9.6568 C.3     1  UNL1        0.0577
     22 C          68.3355   92.2428    9.4108 C.3     1  UNL1        0.0173
@<TRIPOS>BOND
     1    20    21    1
     2    21    22    1
     3    21    18    1
     4    18    19    1
     5    18    17    1
     6    17    14    1
     7    14    15    1
     8    14    13    1
     9    13     1    1
    10     1     2    1
    11     2     3   ar
    12     3     4   ar
    13     4     5   ar
    14     5     6   ar
    15     6     7   ar
    16     7     8    1
    17     7     9   ar
    18     9    10   ar
    19    10    11   ar
    20    11    12   ar
    21    12     2   ar
    22    11     5   ar
    23    15    16    1
@<TRIPOS>MOLECULE
*****
 22 23 0 0 0
SMALL
GASTEIGER

@<TRIPOS>ATOM
      1 O          62.5916   90.7419   10.2516 O.3     1  UNL1       -0.4728
      2 C          63.6910   91.3633   11.0610 C.ar    1  UNL1        0.1387
      3 C          64.6353   92.3371   10.4206 C.ar    1  UNL1        0.0369
      4 C          65.7347   92.9585   11.2300 C.ar    1  UNL1        0.0031
      5 C          65.8899   92.6062   12.6797 C.ar    1  UNL1        0.0007
      6 C          66.9893   93.2277   13.4891 C.ar    1  UNL1        0.0067
      7 C          67.1445   92.8754   14.9388 C.ar    1  UNL1        0.0346
      8 BR         68.2439   93.4969   15.7481 Br      1  UNL1       -0.0490
      9 C          66.2002   91.9016   15.5792 C.ar    1  UNL1        0.0067
     10 C          65.1008   91.2801   14.7699 C.ar    1  UNL1        0.0006
     11 C          64.9456   91.6325   13.3201 C.ar    1  UNL1        0.0030
     12 C          63.8462   91.0110   12.5107 C.ar    1  UNL1        0.0369
     13 C          62.3048   89.2750   10.3775 C.3     1  UNL1        0.2358
     14 C          61.1335   88.8067   11.1891 C.3     1  UNL1        0.1700
     15 O          60.5929   89.6678   12.2919 O.3     1  UNL1       -0.3793
     16 H          59.8420   89.2207   12.7127 H       1  UNL1        0.2106
     17 C          60.5027   87.4773   10.8978 C.3     1  UNL1        0.1056
     18 N          61.3523   86.3274   10.4441 N.3     1  UNL1       -0.2707
     19 C          62.0721   85.4826   11.4532 C.3     1  UNL1        0.0897
     20 C          60.3079   86.2149    8.0678 C.3     1  UNL1        0.0173
     21 C          61.4821   86.0222    8.9811 C.3     1  UNL1        0.0577
     22 C          62.7860   85.5244    8.4316 C.3     1  UNL1        0.0173
@<TRIPOS>BOND
     1    20    21    1
     2    21    22    1
     3    21    18    1
     4    18    19    1
     5    18    17    1
     6    17    14    1
     7    14    15    1
     8    14    13    1
     9    13     1    1
    10     1     2    1
    11     2     3   ar
    12     3     4   ar
    13     4     5   ar
    14     5     6   ar
    15     6     7   ar
    16     7     8    1
    17     7     9   ar
    18     9    10   ar
    19    10    11   ar
    20    11    12   ar
    21    12     2   ar
    22    11     5   ar
    23    15    16    1
@<TRIPOS>MOLECULE
*****
 22 23 0 0 0
SMALL
GASTEIGER

@<TRIPOS>ATOM
      1 O          61.6427   89.0535   12.3430 O.3     1  UNL1       -0.4728
      2 C          61.3645   88.2470   11.1093 C.ar    1  UNL1        0.1387
      3 C          60.0368   88.3631   10.4210 C.ar    1  UNL1        0.0369
      4 C          59.7585   87.5566    9.1873 C.ar    1  UNL1        0.0031
      5 C          60.8079   86.6341    8.6417 C.ar    1  UNL1        0.0007
      6 C          60.5296   85.8276    7.4080 C.ar    1  UNL1        0.0067
      7 C          61.5790   84.9051    6.8624 C.ar    1  UNL1        0.0346
      8 BR         61.3008   84.0986    5.6287 Br      1  UNL1       -0.0490
      9 C          62.9068   84.7890    7.5507 C.ar    1  UNL1        0.0067
     10 C          63.1851   85.5955    8.7844 C.ar    1  UNL1        0.0006
     11 C          62.1356   86.5181    9.3300 C.ar    1  UNL1        0.0030
     12 C          62.4139   87.3245   10.5637 C.ar    1  UNL1        0.0369
     13 C          62.9670   89.7381   12.5087 C.3     1  UNL1        0.2358
     14 C          63.5539   89.9149   13.8778 C.3     1  UNL1        0.1700
     15 O          63.2092   91.1275   14.6906 O.3     1  UNL1       -0.3793
     16 H          63.6693   91.0865   15.5435 H       1  UNL1        0.2106
     17 C          64.4855   88.8791   14.4339 C.3     1  UNL1        0.1056
     18 N          63.9418   87.5761   14.9406 N.3     1  UNL1       -0.2707
     19 C          63.9705   86.3596   14.0636 C.3     1  UNL1        0.0897
     20 C          63.0769   86.1501   16.9328 C.3     1  UNL1        0.0173
     21 C          63.3694   87.4897   16.3245 C.3     1  UNL1        0.0577
     22 C          63.0896   88.7427   17.1000 C.3     1  UNL1        0.0173
@<TRIPOS>BOND
     1    20    21    1
     2    21    22    1
     3    21    18    1
     4    18    19    1
     5    18    17    1
     6    17    14    1
     7    14    15    1
     8    14    13    1
     9    13     1    1
    10     1     2    1
    11     2     3   ar
    12     3     4   ar
    13     4     5   ar
    14     5     6   ar
    15     6     7   ar
    16     7     8    1
    17     7     9   ar
    18     9    10   ar
    19    10    11   ar
    20    11    12   ar
    21    12     2   ar
    22    11     5   ar
    23    15    16    1
@<TRIPOS>MOLECULE
*****
 22 23 0 0 0
SMALL
GASTEIGER

@<TRIPOS>ATOM
      1 O          64.3922   89.9965   13.6787 O.3     1  UNL1       -0.4728
      2 C          63.4698   89.6693   12.5419 C.ar    1  UNL1        0.1387
      3 C          62.9149   90.7690   11.6860 C.ar    1  UNL1        0.0369
      4 C          61.9925   90.4418   10.5493 C.ar    1  UNL1        0.0031
      5 C          61.6251   89.0149   10.2684 C.ar    1  UNL1        0.0007
      6 C          60.7027   88.6877    9.1317 C.ar    1  UNL1        0.0067
      7 C          60.3353   87.2608    8.8509 C.ar    1  UNL1        0.0346
      8 BR         59.4129   86.9336    7.7141 Br      1  UNL1       -0.0490
      9 C          60.8903   86.1610    9.7068 C.ar    1  UNL1        0.0067
     10 C          61.8126   86.4882   10.8436 C.ar    1  UNL1        0.0006
     11 C          62.1800   87.9152   11.1244 C.ar    1  UNL1        0.0030
     12 C          63.1024   88.2424   12.2611 C.ar    1  UNL1        0.0369
     13 C          63.9052   90.8372   14.8215 C.3     1  UNL1        0.2358
     14 C          64.8750   91.6695   15.6069 C.3     1  UNL1        0.1700
     15 O          64.3723   92.6200   16.6527 O.3     1  UNL1       -0.3793
     16 H          65.1236   93.0762   17.0629 H       1  UNL1        0.2106
     17 C          66.3475   91.5511   15.3465 C.3     1  UNL1        0.1056
     18 N          67.0401   92.5632   14.4829 N.3     1  UNL1       -0.2707
     19 C          67.7229   93.7425   15.1098 C.3     1  UNL1        0.0897
     20 C          65.9069   92.9160   12.1717 C.3     1  UNL1        0.0173
     21 C          67.0499   92.3960   12.9922 C.3     1  UNL1        0.0577
     22 C          68.2026   91.7089   12.3221 C.3     1  UNL1        0.0173
@<TRIPOS>BOND
     1    20    21    1
     2    21    22    1
     3    21    18    1
     4    18    19    1
     5    18    17    1
     6    17    14    1
     7    14    15    1
     8    14    13    1
     9    13     1    1
    10     1     2    1
    11     2     3   ar
    12     3     4   ar
    13     4     5   ar
    14     5     6   ar
    15     6     7   ar
    16     7     8    1
    17     7     9   ar
    18     9    10   ar
    19    10    11   ar
    20    11    12   ar
    21    12     2   ar
    22    11     5   ar
    23    15    16    1
