@<TRIPOS>MOLECULE
*****
 14 15 0 0 0
SMALL
GASTEIGER

@<TRIPOS>ATOM
      1 C          65.2085   91.4257   14.4934 C.ar    1  UNL1        0.1511
      2 C          66.6652   91.3257   14.8372 C.ar    1  UNL1        0.0383
      3 C          67.4489   91.9496   13.7208 C.ar    1  UNL1        0.0404
      4 C          66.4766   92.4353   12.6869 C.ar    1  UNL1        0.1464
      5 O          65.0920   92.1115   13.1644 O.2     1  UNL1       -0.4556
      6 C          66.8274   93.1238   11.4012 C.ar    1  UNL1        0.0537
      7 C          67.6538   92.4129   10.3709 C.ar    1  UNL1        0.0062
      8 C          68.0046   93.1015    9.0853 C.ar    1  UNL1        0.0208
      9 C          67.5289   94.5010    8.8300 C.ar    1  UNL1        0.0989
     10 N          66.7025   95.2119    9.8603 N.ar    1  UNL1       -0.2422
     11 C          66.3517   94.5233   11.1459 C.ar    1  UNL1        0.1019
     12 C          64.0686   90.9275   15.3314 C.3     1  UNL1        0.2361
     13 O          64.5170   92.6929   17.1841 O.2     1  UNL1       -0.1478
     14 N          63.5865   91.7364   16.4990 N.2     1  UNL1       -0.0481
@<TRIPOS>BOND
     1    13    14    2
     2    14    12    1
     3    12     1    1
     4     1     2   ar
     5     2     3   ar
     6     3     4   ar
     7     4     6    1
     8     6     7   ar
     9     7     8   ar
    10     8     9   ar
    11     9    10   ar
    12    10    11   ar
    13     4     5   ar
    14     5     1   ar
    15    11     6   ar
@<TRIPOS>MOLECULE
*****
 14 15 0 0 0
SMALL
GASTEIGER

@<TRIPOS>ATOM
      1 C          63.5687   84.7585   14.4188 C.ar    1  UNL1        0.1511
      2 C          64.2864   83.6184   13.7592 C.ar    1  UNL1        0.0383
      3 C          63.9692   83.6569   12.2936 C.ar    1  UNL1        0.0404
      4 C          63.0555   84.8208   12.0475 C.ar    1  UNL1        0.1464
      5 O          62.8080   85.5016   13.3610 O.2     1  UNL1       -0.4556
      6 C          62.4888   85.2317   10.7208 C.ar    1  UNL1        0.0537
      7 C          63.1684   84.8098    9.4519 C.ar    1  UNL1        0.0062
      8 C          62.6017   85.2207    8.1253 C.ar    1  UNL1        0.0208
      9 C          61.3554   86.0535    8.0675 C.ar    1  UNL1        0.0989
     10 N          60.6759   86.4754    9.3364 N.ar    1  UNL1       -0.2422
     11 C          61.2426   86.0645   10.6631 C.ar    1  UNL1        0.1019
     12 C          63.6053   85.0962   15.8799 C.3     1  UNL1        0.2361
     13 O          61.5796   86.1288   17.1370 O.2     1  UNL1       -0.1478
     14 N          62.8693   86.2994   16.3902 N.2     1  UNL1       -0.0481
@<TRIPOS>BOND
     1    13    14    2
     2    14    12    1
     3    12     1    1
     4     1     2   ar
     5     2     3   ar
     6     3     4   ar
     7     4     6    1
     8     6     7   ar
     9     7     8   ar
    10     8     9   ar
    11     9    10   ar
    12    10    11   ar
    13     4     5   ar
    14     5     1   ar
    15    11     6   ar
@<TRIPOS>MOLECULE
*****
 14 15 0 0 0
SMALL
GASTEIGER

@<TRIPOS>ATOM
      1 C          63.3168   89.9097   12.9420 C.ar    1  UNL1        0.1511
      2 C          63.5549   90.9603   11.8981 C.ar    1  UNL1        0.0383
      3 C          62.9307   90.4911   10.6174 C.ar    1  UNL1        0.0404
      4 C          62.3068   89.1505   10.8698 C.ar    1  UNL1        0.1464
      5 O          62.5455   88.7912   12.3064 O.2     1  UNL1       -0.4556
      6 C          61.5731   88.3157    9.8623 C.ar    1  UNL1        0.0537
      7 C          62.0697   86.9418    9.5224 C.ar    1  UNL1        0.0062
      8 C          61.3360   86.1071    8.5150 C.ar    1  UNL1        0.0208
      9 C          60.1057   86.6464    7.8475 C.ar    1  UNL1        0.0989
     10 N          59.6092   88.0203    8.1874 N.ar    1  UNL1       -0.2422
     11 C          60.3429   88.8550    9.1948 C.ar    1  UNL1        0.1019
     12 C          63.7705   89.9675   14.3706 C.3     1  UNL1        0.2361
     13 O          63.4210   91.1490   16.6579 O.2     1  UNL1       -0.1478
     14 N          63.5788   91.2234   15.1681 N.2     1  UNL1       -0.0481
@<TRIPOS>BOND
     1    13    14    2
     2    14    12    1
     3    12     1    1
     4     1     2   ar
     5     2     3   ar
     6     3     4   ar
     7     4     6    1
     8     6     7   ar
     9     7     8   ar
    10     8     9   ar
    11     9    10   ar
    12    10    11   ar
    13     4     5   ar
    14     5     1   ar
    15    11     6   ar
@<TRIPOS>MOLECULE
*****
 14 15 0 0 0
SMALL
GASTEIGER

@<TRIPOS>ATOM
      1 C          60.7167   87.8084   10.7169 C.ar    1  UNL1        0.1511
      2 C          61.2402   87.5479    9.3355 C.ar    1  UNL1        0.0383
      3 C          62.0874   86.3111    9.3865 C.ar    1  UNL1        0.0404
      4 C          62.0875   85.8072   10.7994 C.ar    1  UNL1        0.1464
      5 O          61.2404   86.7325   11.6216 O.2     1  UNL1       -0.4556
      6 C          62.8082   84.5913   11.3018 C.ar    1  UNL1        0.0537
      7 C          63.5739   83.7250   10.3462 C.ar    1  UNL1        0.0062
      8 C          64.2945   82.5093   10.8486 C.ar    1  UNL1        0.0208
      9 C          64.2495   82.1597   12.3066 C.ar    1  UNL1        0.0989
     10 N          63.4838   83.0260   13.2622 N.ar    1  UNL1       -0.2422
     11 C          62.7632   84.2418   12.7598 C.ar    1  UNL1        0.1019
     12 C          59.8260   88.9451   11.1224 C.3     1  UNL1        0.2361
     13 O          58.6498   88.6625   13.4217 O.2     1  UNL1       -0.1478
     14 N          59.6966   89.3171   12.5698 N.2     1  UNL1       -0.0481
@<TRIPOS>BOND
     1    13    14    2
     2    14    12    1
     3    12     1    1
     4     1     2   ar
     5     2     3   ar
     6     3     4   ar
     7     4     6    1
     8     6     7   ar
     9     7     8   ar
    10     8     9   ar
    11     9    10   ar
    12    10    11   ar
    13     4     5   ar
    14     5     1   ar
    15    11     6   ar
@<TRIPOS>MOLECULE
*****
 14 15 0 0 0
SMALL
GASTEIGER

@<TRIPOS>ATOM
      1 C          63.5570   87.4002   16.0944 C.ar    1  UNL1        0.1511
      2 C          63.1238   88.5440   16.9628 C.ar    1  UNL1        0.0383
      3 C          63.3807   89.8179   16.2137 C.ar    1  UNL1        0.0404
      4 C          63.9726   89.4614   14.8823 C.ar    1  UNL1        0.1464
      5 O          64.0816   87.9672   14.8086 O.2     1  UNL1       -0.4556
      6 C          64.3835   90.4293   13.8124 C.ar    1  UNL1        0.0537
      7 C          65.5616   91.3319   14.0298 C.ar    1  UNL1        0.0062
      8 C          65.9723   92.2997   12.9600 C.ar    1  UNL1        0.0208
      9 C          65.2050   92.3649   11.6728 C.ar    1  UNL1        0.0989
     10 N          64.0269   91.4623   11.4554 N.ar    1  UNL1       -0.2422
     11 C          63.6161   90.4945   12.5252 C.ar    1  UNL1        0.1019
     12 C          63.4793   85.9449   16.4495 C.3     1  UNL1        0.2361
     13 O          60.9278   86.1831   16.8775 O.2     1  UNL1       -0.1478
     14 N          62.1576   85.3278   16.7991 N.2     1  UNL1       -0.0481
@<TRIPOS>BOND
     1    13    14    2
     2    14    12    1
     3    12     1    1
     4     1     2   ar
     5     2     3   ar
     6     3     4   ar
     7     4     6    1
     8     6     7   ar
     9     7     8   ar
    10     8     9   ar
    11     9    10   ar
    12    10    11   ar
    13     4     5   ar
    14     5     1   ar
    15    11     6   ar
@<TRIPOS>MOLECULE
*****
 14 15 0 0 0
SMALL
GASTEIGER

@<TRIPOS>ATOM
      1 C          62.4356   87.4525   11.3464 C.ar    1  UNL1        0.1511
      2 C          62.0980   86.7504   10.0645 C.ar    1  UNL1        0.0383
      3 C          62.1805   85.2729   10.3097 C.ar    1  UNL1        0.0404
      4 C          62.5690   85.0618   11.7431 C.ar    1  UNL1        0.1464
      5 O          62.7267   86.4089   12.3838 O.2     1  UNL1       -0.4556
      6 C          62.7654   83.7363   12.4173 C.ar    1  UNL1        0.0537
      7 C          62.7505   82.4736   11.6078 C.ar    1  UNL1        0.0062
      8 C          62.9469   81.1482   12.2821 C.ar    1  UNL1        0.0208
      9 C          63.1582   81.0855   13.7658 C.ar    1  UNL1        0.0989
     10 N          63.1731   82.3482   14.5753 N.ar    1  UNL1       -0.2422
     11 C          62.9767   83.6736   13.9010 C.ar    1  UNL1        0.1019
     12 C          62.4751   88.9375   11.5544 C.3     1  UNL1        0.2361
     13 O          59.9865   89.0220   12.2958 O.2     1  UNL1       -0.1478
     14 N          61.3614   89.6217   12.2903 N.2     1  UNL1       -0.0481
@<TRIPOS>BOND
     1    13    14    2
     2    14    12    1
     3    12     1    1
     4     1     2   ar
     5     2     3   ar
     6     3     4   ar
     7     4     6    1
     8     6     7   ar
     9     7     8   ar
    10     8     9   ar
    11     9    10   ar
    12    10    11   ar
    13     4     5   ar
    14     5     1   ar
    15    11     6   ar
@<TRIPOS>MOLECULE
*****
 14 15 0 0 0
SMALL
GASTEIGER

@<TRIPOS>ATOM
      1 C          61.2432   86.6752    9.6574 C.ar    1  UNL1        0.1511
      2 C          62.2839   86.0881    8.7505 C.ar    1  UNL1        0.0383
      3 C          62.9719   84.9798    9.4909 C.ar    1  UNL1        0.0404
      4 C          62.3565   84.8819   10.8554 C.ar    1  UNL1        0.1464
      5 O          61.2881   85.9297   10.9582 O.2     1  UNL1       -0.4556
      6 C          62.7419   83.9073   11.9286 C.ar    1  UNL1        0.0537
      7 C          62.8548   82.4461   11.6093 C.ar    1  UNL1        0.0062
      8 C          63.2402   81.4716   12.6825 C.ar    1  UNL1        0.0208
      9 C          63.5126   81.9583   14.0749 C.ar    1  UNL1        0.0989
     10 N          63.3997   83.4195   14.3942 N.ar    1  UNL1       -0.2422
     11 C          63.0144   84.3940   13.3210 C.ar    1  UNL1        0.1019
     12 C          60.3197   87.8087    9.3222 C.3     1  UNL1        0.2361
     13 O          58.4383   86.7834    7.8528 O.2     1  UNL1       -0.1478
     14 N          59.5380   87.7858    8.0422 N.2     1  UNL1       -0.0481
@<TRIPOS>BOND
     1    13    14    2
     2    14    12    1
     3    12     1    1
     4     1     2   ar
     5     2     3   ar
     6     3     4   ar
     7     4     6    1
     8     6     7   ar
     9     7     8   ar
    10     8     9   ar
    11     9    10   ar
    12    10    11   ar
    13     4     5   ar
    14     5     1   ar
    15    11     6   ar
@<TRIPOS>MOLECULE
*****
 14 15 0 0 0
SMALL
GASTEIGER

@<TRIPOS>ATOM
      1 C          63.1084   83.9805   12.8784 C.ar    1  UNL1        0.1511
      2 C          63.5950   83.4355   11.5684 C.ar    1  UNL1        0.0383
      3 C          63.1279   84.3570   10.4809 C.ar    1  UNL1        0.0404
      4 C          62.3526   85.4714   11.1188 C.ar    1  UNL1        0.1464
      5 O          62.3405   85.2387   12.6005 O.2     1  UNL1       -0.4556
      6 C          61.7033   86.6174   10.4009 C.ar    1  UNL1        0.0537
      7 C          60.7490   86.3527    9.2743 C.ar    1  UNL1        0.0062
      8 C          60.0998   87.4986    8.5565 C.ar    1  UNL1        0.0208
      9 C          60.4050   88.9093    8.9652 C.ar    1  UNL1        0.0989
     10 N          61.3593   89.1739   10.0917 N.ar    1  UNL1       -0.2422
     11 C          62.0085   88.0280   10.8096 C.ar    1  UNL1        0.1019
     12 C          63.3476   83.3737   14.2293 C.3     1  UNL1        0.2361
     13 O          63.4955   80.7801   14.1925 O.2     1  UNL1       -0.1478
     14 N          62.7614   82.0343   14.5642 N.2     1  UNL1       -0.0481
@<TRIPOS>BOND
     1    13    14    2
     2    14    12    1
     3    12     1    1
     4     1     2   ar
     5     2     3   ar
     6     3     4   ar
     7     4     6    1
     8     6     7   ar
     9     7     8   ar
    10     8     9   ar
    11     9    10   ar
    12    10    11   ar
    13     4     5   ar
    14     5     1   ar
    15    11     6   ar
@<TRIPOS>MOLECULE
*****
 14 15 0 0 0
SMALL
GASTEIGER

@<TRIPOS>ATOM
      1 C          60.8775   88.7367    9.4280 C.ar    1  UNL1        0.1511
      2 C          61.3503   87.3899    9.8891 C.ar    1  UNL1        0.0383
      3 C          62.3109   87.5987   11.0220 C.ar    1  UNL1        0.0404
      4 C          62.4318   89.0746   11.2612 C.ar    1  UNL1        0.1464
      5 O          61.5459   89.7779   10.2761 O.2     1  UNL1       -0.4556
      6 C          63.2882   89.7318   12.3027 C.ar    1  UNL1        0.0537
      7 C          63.7880   88.9377   13.4730 C.ar    1  UNL1        0.0062
      8 C          64.6444   89.5949   14.5145 C.ar    1  UNL1        0.0208
      9 C          65.0010   91.0462   14.3856 C.ar    1  UNL1        0.0989
     10 N          64.5012   91.8403   13.2153 N.ar    1  UNL1       -0.2422
     11 C          63.6448   91.1831   12.1739 C.ar    1  UNL1        0.1019
     12 C          59.9067   88.9967    8.3144 C.3     1  UNL1        0.2361
     13 O          58.4512   86.8734    7.9637 O.2     1  UNL1       -0.1478
     14 N          59.4464   87.8669    7.4417 N.2     1  UNL1       -0.0481
@<TRIPOS>BOND
     1    13    14    2
     2    14    12    1
     3    12     1    1
     4     1     2   ar
     5     2     3   ar
     6     3     4   ar
     7     4     6    1
     8     6     7   ar
     9     7     8   ar
    10     8     9   ar
    11     9    10   ar
    12    10    11   ar
    13     4     5   ar
    14     5     1   ar
    15    11     6   ar
