@<TRIPOS>MOLECULE
*****
 39 45 0 0 0
SMALL
GASTEIGER

@<TRIPOS>ATOM
      1 C          63.5660   86.9757   14.8121 C.2     1  UNL1        0.0357
      2 C          63.0251   86.7456   16.1922 C.2     1  UNL1        0.0021
      3 C          62.9313   87.8870   17.1608 C.2     1  UNL1        0.0205
      4 C          63.3783   89.2585   16.7494 C.2     1  UNL1        0.1007
      5 N          63.4050   90.5672   17.4820 N.2     1  UNL1       -0.1483
      6 N          63.9624   91.6061   16.5546 N.2     1  UNL1       -0.1483
      7 C          64.2801   90.9395   15.2490 C.2     1  UNL1        0.1007
      8 C          63.9191   89.4886   15.3694 C.2     1  UNL1        0.0211
      9 C          64.0129   88.3472   14.4007 C.3     1  UNL1        0.0604
     10 C          64.8574   91.6066   14.0359 C.ar    1  UNL1        0.0192
     11 C          64.2390   91.3781   12.6885 C.ar    1  UNL1        0.0028
     12 C          64.8164   92.0453   11.4754 C.ar    1  UNL1        0.0146
     13 C          66.0121   92.9408   11.6096 C.ar    1  UNL1        0.0479
     14 C          66.6306   93.1693   12.9570 C.ar    1  UNL1        0.0146
     15 C          66.0532   92.5022   14.1701 C.ar    1  UNL1        0.0028
     16 N          66.5895   93.6079   10.3965 N.pl3   1  UNL1       -0.3058
     17 C          67.6344   92.9063    9.5806 C.3     1  UNL1        0.1024
     18 C          66.8155   92.6412   10.8090 C.3     1  UNL1        0.0241
     19 C          65.9422   93.8366   11.0508 C.3     1  UNL1        0.0241
     20 C          66.1219   94.9767    9.9994 C.3     1  UNL1        0.1024
     21 C          66.6993   95.6439    8.7863 C.3     1  UNL1        0.1618
     22 O          67.7442   94.9422    7.9703 O.3     1  UNL1       -0.3503
     23 C          68.2118   93.5734    8.3675 C.3     1  UNL1        0.1618
     24 O          64.8747   84.9544   13.8365 O.2     1  UNL1       -0.2705
     25 C          63.6598   85.8342   13.8434 C.2     1  UNL1        0.2424
     26 N          62.5389   85.5726   12.8816 N.am    1  UNL1       -0.2975
     27 H          61.7415   86.1501   12.8862 H       1  UNL1        0.1500
     28 C          62.6327   84.4312   11.9129 C.3     1  UNL1        0.1120
     29 C          62.6050   83.0178   12.4143 C.ar    1  UNL1        0.0768
     30 C          62.9902   81.8908   11.5025 C.ar    1  UNL1        0.0164
     31 C          62.9625   80.4774   12.0039 C.ar    1  UNL1        0.0029
     32 C          62.5496   80.1909   13.4172 C.ar    1  UNL1        0.0207
     33 C          62.1644   81.3179   14.3291 C.ar    1  UNL1        0.0985
     34 N          62.1921   82.7313   13.8277 N.ar    1  UNL1       -0.2465
     35 C          62.7543   84.7032   10.4428 C.3     1  UNL1        0.0238
     36 C          62.0082   85.7546    9.6761 C.3     1  UNL1        0.0020
     37 C          62.4361   85.6728    8.2408 C.3     1  UNL1        0.0001
     38 C          63.4467   84.5709    8.1204 C.3     1  UNL1        0.0001
     39 C          63.6433   83.9716    9.4813 C.3     1  UNL1        0.0020
@<TRIPOS>BOND
     1    24    25    2
     2    25    26   am
     3    28    26    1
     4    28    29    1
     5    29    30   ar
     6    30    31   ar
     7    31    32   ar
     8    32    33   ar
     9    33    34   ar
    10    28    35    1
    11    35    36    1
    12    36    37    1
    13    37    38    1
    14    38    39    1
    15    25     1    1
    16     1     2    2
    17     2     3    1
    18     3     4    2
    19     4     5    1
    20     5     6    2
    21     6     7    1
    22     7    10    1
    23    10    11   ar
    24    11    12   ar
    25    12    13   ar
    26    13    16    1
    27    16    17    1
    28    17    18    1
    29    18    19    1
    30    19    20    1
    31    20    21    1
    32    21    22    1
    33    22    23    1
    34    13    14   ar
    35    14    15   ar
    36     7     8    2
    37     8     9    1
    38    34    29   ar
    39    39    35    1
    40     9     1    1
    41     8     4    1
    42    15    10   ar
    43    20    16    1
    44    23    17    1
    45    26    27    1
@<TRIPOS>MOLECULE
*****
 39 45 0 0 0
SMALL
GASTEIGER

@<TRIPOS>ATOM
      1 C          63.5784   86.9299   14.8706 C.2     1  UNL1        0.0357
      2 C          63.0378   86.7029   16.2513 C.2     1  UNL1        0.0021
      3 C          62.9435   87.8466   17.2172 C.2     1  UNL1        0.0205
      4 C          63.3898   89.2173   16.8024 C.2     1  UNL1        0.1007
      5 N          63.4159   90.5279   17.5317 N.2     1  UNL1       -0.1483
      6 N          63.9727   91.5648   16.6018 N.2     1  UNL1       -0.1483
      7 C          64.2906   90.8951   15.2977 C.2     1  UNL1        0.1007
      8 C          63.9303   89.4443   15.4217 C.2     1  UNL1        0.0211
      9 C          64.0246   88.3006   14.4559 C.3     1  UNL1        0.0604
     10 C          64.8675   91.5595   14.0830 C.ar    1  UNL1        0.0192
     11 C          64.1836   91.4191   12.7553 C.ar    1  UNL1        0.0028
     12 C          64.7605   92.0836   11.5405 C.ar    1  UNL1        0.0146
     13 C          66.0212   92.8884   11.6533 C.ar    1  UNL1        0.0479
     14 C          66.7051   93.0288   12.9810 C.ar    1  UNL1        0.0146
     15 C          66.1282   92.3644   14.1958 C.ar    1  UNL1        0.0028
     16 N          66.5981   93.5529   10.4385 N.pl3   1  UNL1       -0.3058
     17 C          66.1075   94.9073   10.0203 C.3     1  UNL1        0.1024
     18 C          65.8369   93.9106   11.1081 C.3     1  UNL1        0.0241
     19 C          66.7364   92.7303   10.8897 C.3     1  UNL1        0.0241
     20 C          67.6656   92.8629    9.6420 C.3     1  UNL1        0.1024
     21 C          68.2425   93.5274    8.4273 C.3     1  UNL1        0.1618
     22 O          67.7519   94.8817    8.0090 O.3     1  UNL1       -0.3503
     23 C          66.6844   95.5717    8.8055 C.3     1  UNL1        0.1618
     24 O          64.9509   85.0106   13.7831 O.2     1  UNL1       -0.2705
     25 C          63.6727   85.7861   13.9047 C.2     1  UNL1        0.2424
     26 N          62.4889   85.4179   13.0603 N.am    1  UNL1       -0.2975
     27 H          61.6499   85.9269   13.1401 H       1  UNL1        0.1500
     28 C          62.5832   84.2742   12.0944 C.3     1  UNL1        0.1120
     29 C          62.6552   84.5416   10.6202 C.ar    1  UNL1        0.0768
     30 C          63.6627   83.8197    9.7753 C.ar    1  UNL1        0.0164
     31 C          63.7347   84.0871    8.3011 C.ar    1  UNL1        0.0029
     32 C          62.7992   85.0763    7.6717 C.ar    1  UNL1        0.0207
     33 C          61.7916   85.7982    8.5166 C.ar    1  UNL1        0.0985
     34 N          61.7196   85.5308    9.9908 N.ar    1  UNL1       -0.2465
     35 C          62.6055   82.8631   12.6027 C.3     1  UNL1        0.0238
     36 C          62.9412   81.6418   11.7992 C.3     1  UNL1        0.0020
     37 C          62.8393   80.4495   12.7036 C.3     1  UNL1        0.0001
     38 C          62.4405   80.9339   14.0661 C.3     1  UNL1        0.0001
     39 C          62.2960   82.4256   14.0037 C.3     1  UNL1        0.0020
@<TRIPOS>BOND
     1    24    25    2
     2    25    26   am
     3    28    26    1
     4    28    29    1
     5    29    30   ar
     6    30    31   ar
     7    31    32   ar
     8    32    33   ar
     9    33    34   ar
    10    28    35    1
    11    35    36    1
    12    36    37    1
    13    37    38    1
    14    38    39    1
    15    25     1    1
    16     1     2    2
    17     2     3    1
    18     3     4    2
    19     4     5    1
    20     5     6    2
    21     6     7    1
    22     7    10    1
    23    10    11   ar
    24    11    12   ar
    25    12    13   ar
    26    13    16    1
    27    16    17    1
    28    17    18    1
    29    18    19    1
    30    19    20    1
    31    20    21    1
    32    21    22    1
    33    22    23    1
    34    13    14   ar
    35    14    15   ar
    36     7     8    2
    37     8     9    1
    38    34    29   ar
    39    39    35    1
    40     9     1    1
    41     8     4    1
    42    15    10   ar
    43    20    16    1
    44    23    17    1
    45    26    27    1
