@<TRIPOS>MOLECULE
*****
 40 43 0 0 0
SMALL
GASTEIGER

@<TRIPOS>ATOM
      1 C          63.8719   90.7455   14.2297 C.3     1  UNL1        0.1165
      2 C          64.2196   91.3770   12.9143 C.ar    1  UNL1        0.0046
      3 C          63.3518   91.1371   11.7145 C.ar    1  UNL1        0.0275
      4 C          63.6994   91.7686   10.3991 C.ar    1  UNL1        0.1429
      5 F          62.8316   91.5287    9.1994 F       1  UNL1       -0.2041
      6 C          64.9148   92.6400   10.2834 C.ar    1  UNL1        0.0667
      7 C          65.7826   92.8799   11.4832 C.ar    1  UNL1        0.1461
      8 C          65.4350   92.2484   12.7986 C.ar    1  UNL1        0.0349
      9 O          66.9981   93.7513   11.3674 O.3     1  UNL1       -0.4263
     10 C          67.2261   94.5593   10.1244 C.3     1  UNL1        0.4723
     11 F          67.9622   93.4059    9.5098 F       1  UNL1       -0.1579
     12 F          66.4899   95.7126   10.7391 F       1  UNL1       -0.1579
     13 C          67.4540   95.3672    8.8814 C.3     1  UNL1        0.4202
     14 F          67.6133   96.8559    8.9732 F       1  UNL1       -0.1876
     15 F          67.5228   94.6865    7.5465 F       1  UNL1       -0.1876
     16 C          65.1425   91.2794   14.8218 C.ar    1  UNL1        0.0792
     17 C          66.4651   90.7209   14.3872 C.ar    1  UNL1        0.0175
     18 C          67.7357   91.2549   14.9793 C.ar    1  UNL1        0.0142
     19 C          67.6837   92.3472   16.0060 C.ar    1  UNL1        0.0768
     20 CL         68.9543   92.8812   16.5981 Cl      1  UNL1       -0.0806
     21 C          66.3611   92.9057   16.4405 C.ar    1  UNL1        0.1098
     22 N          65.0905   92.3718   15.8485 N.ar    1  UNL1       -0.2454
     23 O          63.2452   88.7137   12.2632 O.2     1  UNL1       -0.2528
     24 C          62.6535   89.1212   12.6088 C.2     1  UNL1        0.3011
     25 N          61.3830   88.5873   12.0167 N.am    1  UNL1       -0.2906
     26 N          62.6014   90.2116   13.6376 N.am    1  UNL1       -0.2834
     27 H          60.5148   88.9525   12.3034 H       1  UNL1        0.1509
     28 H          61.7332   90.5768   13.9243 H       1  UNL1        0.1515
     29 C          61.4351   87.4969   10.9879 C.3     1  UNL1        0.0730
     30 C          61.2823   87.6748    9.5063 C.3     1  UNL1        0.0196
     31 C          61.4020   86.3251    8.8627 C.3     1  UNL1        0.0017
     32 C          61.6288   85.3132    9.9466 C.3     1  UNL1        0.0017
     33 C          61.6493   86.0375   11.2600 C.3     1  UNL1        0.0196
     34 C          63.5243   90.1140   15.5451 C.3     1  UNL1        0.0544
     35 C          63.6503   88.6296   15.7211 C.ar    1  UNL1       -0.0199
     36 C          62.9532   87.9476   16.8608 C.ar    1  UNL1       -0.0042
     37 C          63.0792   86.4634   17.0367 C.ar    1  UNL1       -0.0003
     38 C          63.9022   85.6611   16.0729 C.ar    1  UNL1       -0.0000
     39 C          64.5993   86.3430   14.9332 C.ar    1  UNL1       -0.0003
     40 C          64.4733   87.8273   14.7573 C.ar    1  UNL1       -0.0042
@<TRIPOS>BOND
     1    23    24    2
     2    24    25   am
     3    25    29    1
     4    29    30    1
     5    30    31    1
     6    31    32    1
     7    32    33    1
     8    24    26   am
     9    26     1    1
    10     1    34    1
    11    34    35    1
    12    35    36   ar
    13    36    37   ar
    14    37    38   ar
    15    38    39   ar
    16    39    40   ar
    17     1     2    1
    18     2     3   ar
    19     3     4   ar
    20     4     5    1
    21     4     6   ar
    22     6     7   ar
    23     7     9    1
    24     9    10    1
    25    10    11    1
    26    10    12    1
    27    10    13    1
    28    13    14    1
    29    13    15    1
    30     7     8   ar
    31     1    16    1
    32    16    17   ar
    33    17    18   ar
    34    18    19   ar
    35    19    20    1
    36    19    21   ar
    37    21    22   ar
    38    33    29    1
    39    40    35   ar
    40     8     2   ar
    41    22    16   ar
    42    25    27    1
    43    26    28    1
@<TRIPOS>MOLECULE
*****
 40 43 0 0 0
SMALL
GASTEIGER

@<TRIPOS>ATOM
      1 C          63.5489   90.5995   14.0879 C.3     1  UNL1        0.1165
      2 C          63.6622   89.3184   14.8600 C.ar    1  UNL1        0.0046
      3 C          63.1660   89.2485   16.2738 C.ar    1  UNL1        0.0275
      4 C          63.2793   87.9674   17.0459 C.ar    1  UNL1        0.1429
      5 F          62.7831   87.8975   18.4597 F       1  UNL1       -0.2041
      6 C          63.8887   86.7564   16.4041 C.ar    1  UNL1        0.0667
      7 C          64.3849   86.8263   14.9903 C.ar    1  UNL1        0.1461
      8 C          64.2716   88.1073   14.2182 C.ar    1  UNL1        0.0349
      9 O          64.9943   85.6152   14.3486 O.3     1  UNL1       -0.4263
     10 C          64.1207   84.4733   13.9209 C.3     1  UNL1        0.4723
     11 F          64.6530   83.6428   15.0508 F       1  UNL1       -0.1579
     12 F          63.5884   85.3038   12.7909 F       1  UNL1       -0.1579
     13 C          63.2471   83.3315   13.4932 C.3     1  UNL1        0.4202
     14 F          63.2340   82.0589   14.2871 F       1  UNL1       -0.1876
     15 F          62.3865   83.4622   12.2715 F       1  UNL1       -0.1876
     16 C          64.8557   91.0608   14.6618 C.ar    1  UNL1        0.0792
     17 C          66.1449   90.5050   14.1334 C.ar    1  UNL1        0.0175
     18 C          67.4517   90.9664   14.7074 C.ar    1  UNL1        0.0142
     19 C          67.4693   91.9836   15.8096 C.ar    1  UNL1        0.0768
     20 CL         68.7762   92.4450   16.3836 Cl      1  UNL1       -0.0806
     21 C          66.1802   92.5394   16.3380 C.ar    1  UNL1        0.1098
     22 N          64.8734   92.0781   15.7641 N.ar    1  UNL1       -0.2454
     23 O          62.7902   88.9917   11.8015 O.2     1  UNL1       -0.2528
     24 C          62.2240   89.2890   12.2775 C.2     1  UNL1        0.3011
     25 N          60.9172   88.8276   11.7036 N.am    1  UNL1       -0.2906
     26 N          62.2421   90.1381   13.5140 N.am    1  UNL1       -0.2834
     27 H          60.0714   89.0821   12.1385 H       1  UNL1        0.1509
     28 H          61.3963   90.3926   13.9488 H       1  UNL1        0.1515
     29 C          60.8991   87.9785   10.4672 C.3     1  UNL1        0.0730
     30 C          60.4734   88.4224    9.0991 C.3     1  UNL1        0.0196
     31 C          60.6147   87.2546    8.1681 C.3     1  UNL1        0.0017
     32 C          61.1277   86.0891    8.9610 C.3     1  UNL1        0.0017
     33 C          61.3035   86.5365   10.3819 C.3     1  UNL1        0.0196
     34 C          63.4357   91.8805   13.3159 C.3     1  UNL1        0.0544
     35 C          64.5059   92.2634   12.3369 C.ar    1  UNL1       -0.0199
     36 C          65.5818   93.2273   12.7408 C.ar    1  UNL1       -0.0042
     37 C          66.6519   93.6101   11.7619 C.ar    1  UNL1       -0.0003
     38 C          66.6460   93.0289   10.3790 C.ar    1  UNL1       -0.0000
     39 C          65.5701   92.0650    9.9751 C.ar    1  UNL1       -0.0003
     40 C          64.5000   91.6822   10.9541 C.ar    1  UNL1       -0.0042
@<TRIPOS>BOND
     1    23    24    2
     2    24    25   am
     3    25    29    1
     4    29    30    1
     5    30    31    1
     6    31    32    1
     7    32    33    1
     8    24    26   am
     9    26     1    1
    10     1    34    1
    11    34    35    1
    12    35    36   ar
    13    36    37   ar
    14    37    38   ar
    15    38    39   ar
    16    39    40   ar
    17     1     2    1
    18     2     3   ar
    19     3     4   ar
    20     4     5    1
    21     4     6   ar
    22     6     7   ar
    23     7     9    1
    24     9    10    1
    25    10    11    1
    26    10    12    1
    27    10    13    1
    28    13    14    1
    29    13    15    1
    30     7     8   ar
    31     1    16    1
    32    16    17   ar
    33    17    18   ar
    34    18    19   ar
    35    19    20    1
    36    19    21   ar
    37    21    22   ar
    38    33    29    1
    39    40    35   ar
    40     8     2   ar
    41    22    16   ar
    42    25    27    1
    43    26    28    1
@<TRIPOS>MOLECULE
*****
 40 43 0 0 0
SMALL
GASTEIGER

@<TRIPOS>ATOM
      1 C          62.1612   86.8301   10.7312 C.3     1  UNL1        0.1165
      2 C          62.6334   85.5431   11.3402 C.ar    1  UNL1        0.0046
      3 C          62.6053   84.2777   10.5352 C.ar    1  UNL1        0.0275
      4 C          63.0774   82.9908   11.1441 C.ar    1  UNL1        0.1429
      5 F          63.0493   81.7254   10.3391 F       1  UNL1       -0.2041
      6 C          63.5776   82.9692   12.5581 C.ar    1  UNL1        0.0667
      7 C          63.6057   84.2346   13.3631 C.ar    1  UNL1        0.1461
      8 C          63.1336   85.5215   12.7541 C.ar    1  UNL1        0.0349
      9 O          64.1060   84.2130   14.7771 O.3     1  UNL1       -0.4263
     10 C          63.6801   85.2815   15.7397 C.3     1  UNL1        0.4723
     11 F          62.4599   84.4816   16.0878 F       1  UNL1       -0.1579
     12 F          64.9003   86.0814   15.3917 F       1  UNL1       -0.1579
     13 C          63.2542   86.3500   16.7024 C.3     1  UNL1        0.4202
     14 F          63.5535   87.7896   16.4056 F       1  UNL1       -0.1876
     15 F          62.5289   85.9790   17.9620 F       1  UNL1       -0.1876
     16 C          62.0099   86.1467    9.4046 C.ar    1  UNL1        0.0792
     17 C          63.2173   85.6070    8.6968 C.ar    1  UNL1        0.0175
     18 C          63.0658   84.9236    7.3701 C.ar    1  UNL1        0.0142
     19 C          61.7071   84.7800    6.7512 C.ar    1  UNL1        0.0768
     20 CL         61.5557   84.0966    5.4244 Cl      1  UNL1       -0.0806
     21 C          60.4997   85.3198    7.4589 C.ar    1  UNL1        0.1098
     22 N          60.6511   86.0031    8.7856 N.ar    1  UNL1       -0.2454
     23 O          63.7616   89.0380   11.7069 O.2     1  UNL1       -0.2528
     24 C          63.2660   88.6621   12.2054 C.2     1  UNL1        0.3011
     25 N          63.4174   89.3455   13.5321 N.am    1  UNL1       -0.2906
     26 N          62.3126   87.5134   12.0579 N.am    1  UNL1       -0.2834
     27 H          62.8910   89.0401   14.3060 H       1  UNL1        0.1509
     28 H          61.7862   87.2081   12.8318 H       1  UNL1        0.1515
     29 C          64.3708   90.4941   13.6797 C.3     1  UNL1        0.0730
     30 C          65.3241   90.7078   14.8178 C.3     1  UNL1        0.0196
     31 C          66.0808   91.9765   14.5566 C.3     1  UNL1        0.0017
     32 C          65.5949   92.5467   13.2570 C.3     1  UNL1        0.0017
     33 C          64.5381   91.6306   12.7151 C.3     1  UNL1        0.0196
     34 C          61.6891   88.1170   10.1222 C.3     1  UNL1        0.0544
     35 C          60.6067   88.9109   10.7917 C.ar    1  UNL1       -0.0199
     36 C          60.5193   90.3924   10.5740 C.ar    1  UNL1       -0.0042
     37 C          59.4370   91.1863   11.2435 C.ar    1  UNL1       -0.0003
     38 C          58.4419   90.4986   12.1306 C.ar    1  UNL1       -0.0000
     39 C          58.5293   89.0171   12.3483 C.ar    1  UNL1       -0.0003
     40 C          59.6116   88.2232   11.6788 C.ar    1  UNL1       -0.0042
@<TRIPOS>BOND
     1    23    24    2
     2    24    25   am
     3    25    29    1
     4    29    30    1
     5    30    31    1
     6    31    32    1
     7    32    33    1
     8    24    26   am
     9    26     1    1
    10     1    34    1
    11    34    35    1
    12    35    36   ar
    13    36    37   ar
    14    37    38   ar
    15    38    39   ar
    16    39    40   ar
    17     1     2    1
    18     2     3   ar
    19     3     4   ar
    20     4     5    1
    21     4     6   ar
    22     6     7   ar
    23     7     9    1
    24     9    10    1
    25    10    11    1
    26    10    12    1
    27    10    13    1
    28    13    14    1
    29    13    15    1
    30     7     8   ar
    31     1    16    1
    32    16    17   ar
    33    17    18   ar
    34    18    19   ar
    35    19    20    1
    36    19    21   ar
    37    21    22   ar
    38    33    29    1
    39    40    35   ar
    40     8     2   ar
    41    22    16   ar
    42    25    27    1
    43    26    28    1
@<TRIPOS>MOLECULE
*****
 40 43 0 0 0
SMALL
GASTEIGER

@<TRIPOS>ATOM
      1 C          63.6659   89.8767   12.7981 C.3     1  UNL1        0.1165
      2 C          62.3417   89.7022   12.1153 C.ar    1  UNL1        0.0046
      3 C          61.0701   89.8351   12.8998 C.ar    1  UNL1        0.0275
      4 C          59.7460   89.6606   12.2171 C.ar    1  UNL1        0.1429
      5 F          58.4744   89.7935   13.0017 F       1  UNL1       -0.2041
      6 C          59.6934   89.3533   10.7499 C.ar    1  UNL1        0.0667
      7 C          60.9649   89.2204    9.9654 C.ar    1  UNL1        0.1461
      8 C          62.2891   89.3949   10.6481 C.ar    1  UNL1        0.0349
      9 O          60.9123   88.9130    8.4981 O.3     1  UNL1       -0.4263
     10 C          60.2765   87.6412    8.0206 C.3     1  UNL1        0.4723
     11 F          59.1269   88.4258    7.4614 F       1  UNL1       -0.1579
     12 F          61.4260   86.8565    8.5799 F       1  UNL1       -0.1579
     13 C          59.6407   86.3693    7.5431 C.3     1  UNL1        0.4202
     14 F          60.4963   85.2518    7.0244 F       1  UNL1       -0.1876
     15 F          58.1491   86.2149    7.5844 F       1  UNL1       -0.1876
     16 C          63.6818   88.4164   13.1403 C.ar    1  UNL1        0.0792
     17 C          64.3405   87.9494   14.4045 C.ar    1  UNL1        0.0175
     18 C          64.3564   86.4890   14.7467 C.ar    1  UNL1        0.0142
     19 C          63.7136   85.4956   13.8248 C.ar    1  UNL1        0.0768
     20 CL         63.7294   84.0352   14.1670 Cl      1  UNL1       -0.0806
     21 C          63.0549   85.9626   12.5607 C.ar    1  UNL1        0.1098
     22 N          63.0390   87.4229   12.2184 N.ar    1  UNL1       -0.2454
     23 O          65.4354   91.6371   11.3292 O.2     1  UNL1       -0.2528
     24 C          64.7686   91.9312   11.6522 C.2     1  UNL1        0.3011
     25 N          64.7527   93.3915   11.3099 N.am    1  UNL1       -0.2906
     26 N          63.6500   91.3370   12.4558 N.am    1  UNL1       -0.2834
     27 H          64.0081   93.9600   11.6127 H       1  UNL1        0.1509
     28 H          62.9054   91.9055   12.7587 H       1  UNL1        0.1515
     29 C          65.8712   93.9858   10.5063 C.3     1  UNL1        0.0730
     30 C          66.0352   95.4364   10.1617 C.3     1  UNL1        0.0196
     31 C          67.2875   95.5809    9.3485 C.3     1  UNL1        0.0017
     32 C          67.8973   94.2195    9.1907 C.3     1  UNL1        0.0017
     33 C          67.0220   93.2337    9.9062 C.3     1  UNL1        0.0196
     34 C          64.9900   90.0511   13.4808 C.3     1  UNL1        0.0544
     35 C          65.1019   90.9389   14.6848 C.ar    1  UNL1       -0.0199
     36 C          63.9664   91.0253   15.6611 C.ar    1  UNL1       -0.0042
     37 C          64.0784   91.9130   16.8649 C.ar    1  UNL1       -0.0003
     38 C          65.3258   92.7143   17.0926 C.ar    1  UNL1       -0.0000
     39 C          66.4613   92.6278   16.1163 C.ar    1  UNL1       -0.0003
     40 C          66.3494   91.7401   14.9124 C.ar    1  UNL1       -0.0042
@<TRIPOS>BOND
     1    23    24    2
     2    24    25   am
     3    25    29    1
     4    29    30    1
     5    30    31    1
     6    31    32    1
     7    32    33    1
     8    24    26   am
     9    26     1    1
    10     1    34    1
    11    34    35    1
    12    35    36   ar
    13    36    37   ar
    14    37    38   ar
    15    38    39   ar
    16    39    40   ar
    17     1     2    1
    18     2     3   ar
    19     3     4   ar
    20     4     5    1
    21     4     6   ar
    22     6     7   ar
    23     7     9    1
    24     9    10    1
    25    10    11    1
    26    10    12    1
    27    10    13    1
    28    13    14    1
    29    13    15    1
    30     7     8   ar
    31     1    16    1
    32    16    17   ar
    33    17    18   ar
    34    18    19   ar
    35    19    20    1
    36    19    21   ar
    37    21    22   ar
    38    33    29    1
    39    40    35   ar
    40     8     2   ar
    41    22    16   ar
    42    25    27    1
    43    26    28    1
@<TRIPOS>MOLECULE
*****
 40 43 0 0 0
SMALL
GASTEIGER

@<TRIPOS>ATOM
      1 C          63.7917   90.6388   14.1916 C.3     1  UNL1        0.1165
      2 C          63.0419   90.0603   13.0282 C.ar    1  UNL1        0.0046
      3 C          61.9795   90.8685   12.3441 C.ar    1  UNL1        0.0275
      4 C          61.2297   90.2901   11.1808 C.ar    1  UNL1        0.1429
      5 F          60.1673   91.0983   10.4966 F       1  UNL1       -0.2041
      6 C          61.5424   88.9035   10.7017 C.ar    1  UNL1        0.0667
      7 C          62.6048   88.0953   11.3859 C.ar    1  UNL1        0.1461
      8 C          63.3546   88.6737   12.5491 C.ar    1  UNL1        0.0349
      9 O          62.9174   86.7087   10.9067 O.3     1  UNL1       -0.4263
     10 C          62.2555   86.1751    9.6709 C.3     1  UNL1        0.4723
     11 F          61.2133   85.5068   10.5177 F       1  UNL1       -0.1579
     12 F          63.2978   86.8435    8.8242 F       1  UNL1       -0.1579
     13 C          61.5937   85.6416    8.4352 C.3     1  UNL1        0.4202
     14 F          62.4078   84.9283    7.3967 F       1  UNL1       -0.1876
     15 F          60.1176   85.8213    8.2378 F       1  UNL1       -0.1876
     16 C          63.6210   89.3512   14.9418 C.ar    1  UNL1        0.0792
     17 C          64.4525   88.1564   14.5799 C.ar    1  UNL1        0.0175
     18 C          64.2818   86.8687   15.3302 C.ar    1  UNL1        0.0142
     19 C          63.2796   86.7759   16.4423 C.ar    1  UNL1        0.0768
     20 CL         63.1088   85.4883   17.1926 Cl      1  UNL1       -0.0806
     21 C          62.4480   87.9707   16.8042 C.ar    1  UNL1        0.1098
     22 N          62.6187   89.2583   16.0540 N.ar    1  UNL1       -0.2454
     23 O          65.5832   91.5520   12.1072 O.2     1  UNL1       -0.2528
     24 C          65.0292   92.0484   12.3939 C.2     1  UNL1        0.3011
     25 N          65.1999   93.3360   11.6437 N.am    1  UNL1       -0.2906
     26 N          63.9624   91.9264   13.4413 N.am    1  UNL1       -0.2834
     27 H          64.6118   94.1011   11.8387 H       1  UNL1        0.1509
     28 H          63.3742   92.6914   13.6364 H       1  UNL1        0.1515
     29 C          66.2667   93.4580   10.5962 C.3     1  UNL1        0.0730
     30 C          66.4964   94.6430    9.7057 C.3     1  UNL1        0.0196
     31 C          67.6628   94.3339    8.8145 C.3     1  UNL1        0.0017
     32 C          68.1538   92.9578    9.1543 C.3     1  UNL1        0.0017
     33 C          67.2910   92.4165   10.2555 C.3     1  UNL1        0.0196
     34 C          64.5414   91.2172   15.3549 C.3     1  UNL1        0.0544
     35 C          65.9358   91.7365   15.1650 C.ar    1  UNL1       -0.0199
     36 C          66.9679   90.8843   14.4878 C.ar    1  UNL1       -0.0042
     37 C          68.3622   91.4037   14.2981 C.ar    1  UNL1       -0.0003
     38 C          68.7245   92.7753   14.7855 C.ar    1  UNL1       -0.0000
     39 C          67.6925   93.6274   15.4627 C.ar    1  UNL1       -0.0003
     40 C          66.2982   93.1081   15.6525 C.ar    1  UNL1       -0.0042
@<TRIPOS>BOND
     1    23    24    2
     2    24    25   am
     3    25    29    1
     4    29    30    1
     5    30    31    1
     6    31    32    1
     7    32    33    1
     8    24    26   am
     9    26     1    1
    10     1    34    1
    11    34    35    1
    12    35    36   ar
    13    36    37   ar
    14    37    38   ar
    15    38    39   ar
    16    39    40   ar
    17     1     2    1
    18     2     3   ar
    19     3     4   ar
    20     4     5    1
    21     4     6   ar
    22     6     7   ar
    23     7     9    1
    24     9    10    1
    25    10    11    1
    26    10    12    1
    27    10    13    1
    28    13    14    1
    29    13    15    1
    30     7     8   ar
    31     1    16    1
    32    16    17   ar
    33    17    18   ar
    34    18    19   ar
    35    19    20    1
    36    19    21   ar
    37    21    22   ar
    38    33    29    1
    39    40    35   ar
    40     8     2   ar
    41    22    16   ar
    42    25    27    1
    43    26    28    1
@<TRIPOS>MOLECULE
*****
 40 43 0 0 0
SMALL
GASTEIGER

@<TRIPOS>ATOM
      1 C          63.7282   90.6592   14.1630 C.3     1  UNL1        0.1165
      2 C          63.0743   89.9755   12.9989 C.ar    1  UNL1        0.0046
      3 C          62.0770   90.7158   12.1578 C.ar    1  UNL1        0.0275
      4 C          61.4231   90.0322   10.9938 C.ar    1  UNL1        0.1429
      5 F          60.4258   90.7725   10.1528 F       1  UNL1       -0.2041
      6 C          61.7665   88.6082   10.6708 C.ar    1  UNL1        0.0667
      7 C          62.7638   87.8679   11.5118 C.ar    1  UNL1        0.1461
      8 C          63.4177   88.5515   12.6759 C.ar    1  UNL1        0.0349
      9 O          63.1072   86.4439   11.1888 O.3     1  UNL1       -0.4263
     10 C          62.7262   85.3467   12.1379 C.3     1  UNL1        0.4723
     11 F          61.3342   85.3467   11.5792 F       1  UNL1       -0.1579
     12 F          64.1183   85.3467   12.6966 F       1  UNL1       -0.1579
     13 C          62.3453   84.2494   13.0870 C.3     1  UNL1        0.4202
     14 F          62.2450   82.8352   12.5972 F       1  UNL1       -0.1876
     15 F          62.0645   84.5664   14.5261 F       1  UNL1       -0.1876
     16 C          63.5784   89.4105   14.9804 C.ar    1  UNL1        0.0792
     17 C          64.4385   88.2164   14.6903 C.ar    1  UNL1        0.0175
     18 C          64.2886   86.9677   15.5078 C.ar    1  UNL1        0.0142
     19 C          63.2787   86.9131   16.6155 C.ar    1  UNL1        0.0768
     20 CL         63.1288   85.6644   17.4330 Cl      1  UNL1       -0.0806
     21 C          62.4186   88.1073   16.9057 C.ar    1  UNL1        0.1098
     22 N          62.5684   89.3559   16.0882 N.ar    1  UNL1       -0.2454
     23 O          65.5894   91.5420   12.1272 O.2     1  UNL1       -0.2528
     24 C          64.9960   92.0245   12.3523 C.2     1  UNL1        0.3011
     25 N          65.1458   93.2731   11.5348 N.am    1  UNL1       -0.2906
     26 N          63.8780   91.9079   13.3455 N.am    1  UNL1       -0.2834
     27 H          64.5104   94.0162   11.6501 H       1  UNL1        0.1509
     28 H          63.2425   92.6509   13.4608 H       1  UNL1        0.1515
     29 C          66.2639   93.3897   10.5415 C.3     1  UNL1        0.0730
     30 C          66.5415   94.5722    9.6614 C.3     1  UNL1        0.0196
     31 C          67.7498   94.2577    8.8299 C.3     1  UNL1        0.0017
     32 C          68.2188   92.8807    9.1963 C.3     1  UNL1        0.0017
     33 C          67.3005   92.3444   10.2541 C.3     1  UNL1        0.0196
     34 C          64.3820   91.3428   15.3270 C.3     1  UNL1        0.0544
     35 C          65.8130   91.7825   15.2315 C.ar    1  UNL1       -0.0199
     36 C          66.2268   93.1145   15.7834 C.ar    1  UNL1       -0.0042
     37 C          67.6577   93.5541   15.6879 C.ar    1  UNL1       -0.0003
     38 C          68.6748   92.6618   15.0404 C.ar    1  UNL1       -0.0000
     39 C          68.2610   91.3298   14.4885 C.ar    1  UNL1       -0.0003
     40 C          66.8301   90.8902   14.5840 C.ar    1  UNL1       -0.0042
@<TRIPOS>BOND
     1    23    24    2
     2    24    25   am
     3    25    29    1
     4    29    30    1
     5    30    31    1
     6    31    32    1
     7    32    33    1
     8    24    26   am
     9    26     1    1
    10     1    34    1
    11    34    35    1
    12    35    36   ar
    13    36    37   ar
    14    37    38   ar
    15    38    39   ar
    16    39    40   ar
    17     1     2    1
    18     2     3   ar
    19     3     4   ar
    20     4     5    1
    21     4     6   ar
    22     6     7   ar
    23     7     9    1
    24     9    10    1
    25    10    11    1
    26    10    12    1
    27    10    13    1
    28    13    14    1
    29    13    15    1
    30     7     8   ar
    31     1    16    1
    32    16    17   ar
    33    17    18   ar
    34    18    19   ar
    35    19    20    1
    36    19    21   ar
    37    21    22   ar
    38    33    29    1
    39    40    35   ar
    40     8     2   ar
    41    22    16   ar
    42    25    27    1
    43    26    28    1
@<TRIPOS>MOLECULE
*****
 40 43 0 0 0
SMALL
GASTEIGER

@<TRIPOS>ATOM
      1 C          63.3191   87.7347   13.7560 C.3     1  UNL1        0.1165
      2 C          63.7708   86.3071   13.6661 C.ar    1  UNL1        0.0046
      3 C          65.0833   85.8967   14.2653 C.ar    1  UNL1        0.0275
      4 C          65.5350   84.4692   14.1754 C.ar    1  UNL1        0.1429
      5 F          66.8475   84.0587   14.7745 F       1  UNL1       -0.2041
      6 C          64.6743   83.4522   13.4863 C.ar    1  UNL1        0.0667
      7 C          63.3619   83.8626   12.8872 C.ar    1  UNL1        0.1461
      8 C          62.9101   85.2901   12.9771 C.ar    1  UNL1        0.0349
      9 O          62.5012   82.8455   12.1981 O.3     1  UNL1       -0.4263
     10 C          62.0529   81.6189   12.9359 C.3     1  UNL1        0.4723
     11 F          62.5419   80.7611   11.8068 F       1  UNL1       -0.1579
     12 F          61.5639   82.4768   14.0650 F       1  UNL1       -0.1579
     13 C          61.6046   80.3923   13.6737 C.3     1  UNL1        0.4202
     14 F          60.2866   80.3875   14.3897 F       1  UNL1       -0.1876
     15 F          62.4745   79.1704   13.6955 F       1  UNL1       -0.1876
     16 C          63.1798   87.5969   15.2432 C.ar    1  UNL1        0.0792
     17 C          63.2340   88.8145   16.1175 C.ar    1  UNL1        0.0175
     18 C          63.0947   88.6767   17.6047 C.ar    1  UNL1        0.0142
     19 C          62.9013   87.3213   18.2175 C.ar    1  UNL1        0.0768
     20 CL         62.7621   87.1835   19.7047 Cl      1  UNL1       -0.0806
     21 C          62.8472   86.1037   17.3431 C.ar    1  UNL1        0.1098
     22 N          62.9864   86.2415   15.8560 N.ar    1  UNL1       -0.2454
     23 O          61.4798   87.5961   11.5231 O.2     1  UNL1       -0.2528
     24 C          62.2525   87.7369   11.3869 C.2     1  UNL1        0.3011
     25 N          62.3918   87.8747    9.8998 N.am    1  UNL1       -0.2906
     26 N          63.4583   87.8725   12.2689 N.am    1  UNL1       -0.2834
     27 H          63.2745   88.0541    9.5026 H       1  UNL1        0.1509
     28 H          64.3411   88.0520   11.8717 H       1  UNL1        0.1515
     29 C          61.1860   87.7391    9.0178 C.3     1  UNL1        0.0730
     30 C          60.3077   88.8601    8.5468 C.3     1  UNL1        0.0196
     31 C          59.2257   88.2726    7.6899 C.3     1  UNL1        0.0017
     32 C          59.4354   86.7884    7.6315 C.3     1  UNL1        0.0017
     33 C          60.6469   86.4587    8.4522 C.3     1  UNL1        0.0196
     34 C          62.8673   89.1622   13.8460 C.3     1  UNL1        0.0544
     35 C          63.7550   90.2628   13.3451 C.ar    1  UNL1       -0.0199
     36 C          64.9678   90.6646   14.1310 C.ar    1  UNL1       -0.0042
     37 C          65.8554   91.7651   13.6301 C.ar    1  UNL1       -0.0003
     38 C          65.5302   92.4639   12.3432 C.ar    1  UNL1       -0.0000
     39 C          64.3174   92.0621   11.5573 C.ar    1  UNL1       -0.0003
     40 C          63.4299   90.9616   12.0582 C.ar    1  UNL1       -0.0042
@<TRIPOS>BOND
     1    23    24    2
     2    24    25   am
     3    25    29    1
     4    29    30    1
     5    30    31    1
     6    31    32    1
     7    32    33    1
     8    24    26   am
     9    26     1    1
    10     1    34    1
    11    34    35    1
    12    35    36   ar
    13    36    37   ar
    14    37    38   ar
    15    38    39   ar
    16    39    40   ar
    17     1     2    1
    18     2     3   ar
    19     3     4   ar
    20     4     5    1
    21     4     6   ar
    22     6     7   ar
    23     7     9    1
    24     9    10    1
    25    10    11    1
    26    10    12    1
    27    10    13    1
    28    13    14    1
    29    13    15    1
    30     7     8   ar
    31     1    16    1
    32    16    17   ar
    33    17    18   ar
    34    18    19   ar
    35    19    20    1
    36    19    21   ar
    37    21    22   ar
    38    33    29    1
    39    40    35   ar
    40     8     2   ar
    41    22    16   ar
    42    25    27    1
    43    26    28    1
@<TRIPOS>MOLECULE
*****
 40 43 0 0 0
SMALL
GASTEIGER

@<TRIPOS>ATOM
      1 C          63.2989   89.6743   13.7305 C.3     1  UNL1        0.1165
      2 C          63.5311   88.5840   14.7342 C.ar    1  UNL1        0.0046
      3 C          63.0316   88.7400   16.1400 C.ar    1  UNL1        0.0275
      4 C          63.2637   87.6498   17.1437 C.ar    1  UNL1        0.1429
      5 F          62.7642   87.8058   18.5495 F       1  UNL1       -0.2041
      6 C          63.9955   86.4037   16.7417 C.ar    1  UNL1        0.0667
      7 C          64.4950   86.2477   15.3360 C.ar    1  UNL1        0.1461
      8 C          64.2628   87.3379   14.3322 C.ar    1  UNL1        0.0349
      9 O          65.2268   85.0015   14.9340 O.3     1  UNL1       -0.4263
     10 C          64.4768   83.8558   14.3217 C.3     1  UNL1        0.4723
     11 F          64.1316   83.3501   15.6910 F       1  UNL1       -0.1579
     12 F          64.8220   84.3616   12.9525 F       1  UNL1       -0.1579
     13 C          63.7268   82.7101   13.7095 C.3     1  UNL1        0.4202
     14 F          64.3783   81.8651   12.6552 F       1  UNL1       -0.1876
     15 F          62.3253   82.4094   14.1516 F       1  UNL1       -0.1876
     16 C          64.2953   90.5411   14.4415 C.ar    1  UNL1        0.0792
     17 C          65.7099   90.6175   13.9482 C.ar    1  UNL1        0.0175
     18 C          66.7064   91.4843   14.6594 C.ar    1  UNL1        0.0142
     19 C          66.2883   92.2748   15.8636 C.ar    1  UNL1        0.0768
     20 CL         67.2848   93.1417   16.5748 Cl      1  UNL1       -0.0806
     21 C          64.8738   92.1984   16.3569 C.ar    1  UNL1        0.1098
     22 N          63.8773   91.3316   15.6459 N.ar    1  UNL1       -0.2454
     23 O          63.4776   87.6407   11.6761 O.2     1  UNL1       -0.2528
     24 C          62.7649   87.8329   11.9771 C.2     1  UNL1        0.3011
     25 N          61.7684   86.9661   11.2660 N.am    1  UNL1       -0.2906
     26 N          62.3024   88.8075   13.0194 N.am    1  UNL1       -0.2834
     27 H          60.8108   87.0368   11.4834 H       1  UNL1        0.1509
     28 H          61.3448   88.8781   13.2368 H       1  UNL1        0.1515
     29 C          62.2309   85.9915   10.2237 C.3     1  UNL1        0.0730
     30 C          62.1822   86.1995    8.7390 C.3     1  UNL1        0.0196
     31 C          62.7445   84.9744    8.0807 C.3     1  UNL1        0.0017
     32 C          63.1407   84.0095    9.1587 C.3     1  UNL1        0.0017
     33 C          62.8233   84.6381   10.4831 C.3     1  UNL1        0.0196
     34 C          63.0667   90.7645   12.7268 C.3     1  UNL1        0.0544
     35 C          62.0830   90.5613   11.6126 C.ar    1  UNL1       -0.0199
     36 C          60.6138   90.5078   11.9098 C.ar    1  UNL1       -0.0042
     37 C          59.6302   90.3045   10.7957 C.ar    1  UNL1       -0.0003
     38 C          60.1159   90.1548    9.3845 C.ar    1  UNL1       -0.0000
     39 C          61.5852   90.2083    9.0873 C.ar    1  UNL1       -0.0003
     40 C          62.5687   90.4115   10.2014 C.ar    1  UNL1       -0.0042
@<TRIPOS>BOND
     1    23    24    2
     2    24    25   am
     3    25    29    1
     4    29    30    1
     5    30    31    1
     6    31    32    1
     7    32    33    1
     8    24    26   am
     9    26     1    1
    10     1    34    1
    11    34    35    1
    12    35    36   ar
    13    36    37   ar
    14    37    38   ar
    15    38    39   ar
    16    39    40   ar
    17     1     2    1
    18     2     3   ar
    19     3     4   ar
    20     4     5    1
    21     4     6   ar
    22     6     7   ar
    23     7     9    1
    24     9    10    1
    25    10    11    1
    26    10    12    1
    27    10    13    1
    28    13    14    1
    29    13    15    1
    30     7     8   ar
    31     1    16    1
    32    16    17   ar
    33    17    18   ar
    34    18    19   ar
    35    19    20    1
    36    19    21   ar
    37    21    22   ar
    38    33    29    1
    39    40    35   ar
    40     8     2   ar
    41    22    16   ar
    42    25    27    1
    43    26    28    1
@<TRIPOS>MOLECULE
*****
 40 43 0 0 0
SMALL
GASTEIGER

@<TRIPOS>ATOM
      1 C          62.2170   87.2310   11.0232 C.3     1  UNL1        0.1165
      2 C          62.7779   86.0166   11.7020 C.ar    1  UNL1        0.0046
      3 C          63.7598   86.1717   12.8254 C.ar    1  UNL1        0.0275
      4 C          64.3207   84.9574   13.5043 C.ar    1  UNL1        0.1429
      5 F          65.3025   85.1125   14.6276 F       1  UNL1       -0.2041
      6 C          63.8997   83.5881   13.0597 C.ar    1  UNL1        0.0667
      7 C          62.9179   83.4330   11.9363 C.ar    1  UNL1        0.1461
      8 C          62.3570   84.6473   11.2575 C.ar    1  UNL1        0.0349
      9 O          62.4970   82.0635   11.4918 O.3     1  UNL1       -0.4263
     10 C          62.1365   81.0224   12.5096 C.3     1  UNL1        0.4723
     11 F          61.5201   82.0815   13.3746 F       1  UNL1       -0.1579
     12 F          62.7530   79.9633   11.6447 F       1  UNL1       -0.1579
     13 C          61.7761   79.9813   13.5275 C.3     1  UNL1        0.4202
     14 F          60.4449   80.0354   14.2167 F       1  UNL1       -0.1876
     15 F          62.7468   78.8859   13.8562 F       1  UNL1       -0.1876
     16 C          62.0602   86.4485    9.7531 C.ar    1  UNL1        0.0792
     17 C          63.2535   85.7922    9.1244 C.ar    1  UNL1        0.0175
     18 C          63.0967   85.0097    7.8543 C.ar    1  UNL1        0.0142
     19 C          61.7466   84.8836    7.2129 C.ar    1  UNL1        0.0768
     20 CL         61.5898   84.1011    5.9428 Cl      1  UNL1       -0.0806
     21 C          60.5533   85.5400    7.8416 C.ar    1  UNL1        0.1098
     22 N          60.7101   86.3224    9.1117 N.ar    1  UNL1       -0.2454
     23 O          63.8942   89.4419   11.8519 O.2     1  UNL1       -0.2528
     24 C          63.3737   89.1292   12.3683 C.2     1  UNL1        0.3011
     25 N          63.5304   89.9116   13.6383 N.am    1  UNL1       -0.2906
     26 N          62.3738   88.0135   12.2933 N.am    1  UNL1       -0.2834
     27 H          62.9771   89.6929   14.4227 H       1  UNL1        0.1509
     28 H          61.8205   87.7947   13.0777 H       1  UNL1        0.1515
     29 C          64.5303   91.0274   13.7134 C.3     1  UNL1        0.0730
     30 C          64.8413   92.0074   12.6212 C.3     1  UNL1        0.0196
     31 C          65.8978   92.9447   13.1265 C.3     1  UNL1        0.0017
     32 C          66.2398   92.5438   14.5309 C.3     1  UNL1        0.0017
     33 C          65.3946   91.3589   14.8936 C.3     1  UNL1        0.0196
     34 C          61.6562   88.4453   10.3444 C.3     1  UNL1        0.0544
     35 C          60.4982   89.1780   10.9545 C.ar    1  UNL1       -0.0199
     36 C          59.4881   88.4331   11.7760 C.ar    1  UNL1       -0.0042
     37 C          58.3302   89.1658   12.3861 C.ar    1  UNL1       -0.0003
     38 C          58.1823   90.6435   12.1748 C.ar    1  UNL1       -0.0000
     39 C          59.1924   91.3884   11.3533 C.ar    1  UNL1       -0.0003
     40 C          60.3503   90.6557   10.7432 C.ar    1  UNL1       -0.0042
@<TRIPOS>BOND
     1    23    24    2
     2    24    25   am
     3    25    29    1
     4    29    30    1
     5    30    31    1
     6    31    32    1
     7    32    33    1
     8    24    26   am
     9    26     1    1
    10     1    34    1
    11    34    35    1
    12    35    36   ar
    13    36    37   ar
    14    37    38   ar
    15    38    39   ar
    16    39    40   ar
    17     1     2    1
    18     2     3   ar
    19     3     4   ar
    20     4     5    1
    21     4     6   ar
    22     6     7   ar
    23     7     9    1
    24     9    10    1
    25    10    11    1
    26    10    12    1
    27    10    13    1
    28    13    14    1
    29    13    15    1
    30     7     8   ar
    31     1    16    1
    32    16    17   ar
    33    17    18   ar
    34    18    19   ar
    35    19    20    1
    36    19    21   ar
    37    21    22   ar
    38    33    29    1
    39    40    35   ar
    40     8     2   ar
    41    22    16   ar
    42    25    27    1
    43    26    28    1
