@<TRIPOS>MOLECULE
*****
 45 50 0 0 0
SMALL
GASTEIGER

@<TRIPOS>ATOM
      1 C          64.3880   89.8471   13.3595 C.ar    1  UNL1        0.1348
      2 C          63.6646   90.6569   12.3247 C.ar    1  UNL1        0.0346
      3 C          62.7891   89.9747   11.3157 C.ar    1  UNL1        0.0065
      4 C          62.6369   88.4827   11.3416 C.ar    1  UNL1        0.0432
      5 C          63.3603   87.6729   12.3764 C.ar    1  UNL1        0.1256
      6 N          64.2358   88.3551   13.3854 N.ar    1  UNL1       -0.2222
      7 C          61.7614   87.8005   10.3326 C.ar    1  UNL1        0.0850
      8 C          60.2773   87.9700   10.1950 C.ar    1  UNL1        0.1001
      9 N          59.8149   87.1032    9.0614 N.ar    1  UNL1       -0.2264
     10 C          61.0131   86.3981    8.4984 C.ar    1  UNL1        0.1474
     11 C          61.1643   85.4192    7.3719 C.ar    1  UNL1        0.0332
     12 C          62.5184   84.8713    7.0311 C.ar    1  UNL1       -0.0174
     13 C          62.6695   83.8925    5.9045 C.3     1  UNL1        0.0312
     14 C          63.7214   85.3022    7.8167 C.ar    1  UNL1        0.0149
     15 C          63.5703   86.2810    8.9432 C.ar    1  UNL1        0.0811
     16 N          62.2161   86.8290    9.2841 N.ar    1  UNL1       -0.2888
     17 C          59.4083   88.8514   11.0422 C.ar    1  UNL1        0.0327
     18 C          58.5687   88.2528   12.1317 C.ar    1  UNL1        0.0043
     19 C          57.6996   89.1343   12.9789 C.ar    1  UNL1        0.0207
     20 C          57.6701   90.6143   12.7367 C.ar    1  UNL1        0.0984
     21 N          58.5096   91.2129   11.6472 N.ar    1  UNL1       -0.2481
     22 C          59.3787   90.3314   10.8000 C.ar    1  UNL1        0.0609
     23 C          60.2182   90.9301    9.7106 C.3     1  UNL1        0.0521
     24 C          66.1760   91.6402   13.9406 C.2     1  UNL1        0.2414
     25 O          66.2130   92.0689   12.5036 O.2     1  UNL1       -0.2733
     26 N          65.2635   90.5293   14.3685 N.am    1  UNL1       -0.2682
     27 H          65.2392   90.2479   15.3116 H       1  UNL1        0.1563
     28 C          67.0516   92.3224   14.9496 C.3     1  UNL1        0.1319
     29 C          66.4954   92.7034   16.2896 C.3     1  UNL1        0.0270
     30 C          69.3195   93.4282   15.5690 C.3     1  UNL1        0.0862
     31 N          68.4832   92.6235   14.6186 N.3     1  UNL1       -0.2902
     32 H          68.9532   91.7260   14.5003 H       1  UNL1        0.1237
     33 C          63.2081   86.1808   12.4023 C.1     1  UNL1       -0.0404
     34 C          63.0559   84.6888   12.4282 C.1     1  UNL1       -0.0583
     35 C          62.9037   83.1967   12.4541 C.ar    1  UNL1        0.0420
     36 C          62.6302   82.4931   13.7502 C.ar    1  UNL1        0.0083
     37 C          62.4780   81.0011   13.7761 C.ar    1  UNL1        0.0018
     38 C          62.5994   80.2127   12.5058 C.ar    1  UNL1        0.0137
     39 C          62.4473   78.7206   12.5317 C.ar    1  UNL1        0.0594
     40 C          62.1737   78.0170   13.8278 C.3     1  UNL1        0.0521
     41 N          62.5687   77.9322   11.2614 N.ar    1  UNL1       -0.2481
     42 C          62.8422   78.6359    9.9651 C.ar    1  UNL1        0.0984
     43 C          62.9944   80.1279    9.9393 C.ar    1  UNL1        0.0207
     44 C          62.8730   80.9163   11.2096 C.ar    1  UNL1        0.0033
     45 C          63.0251   82.4083   11.1838 C.ar    1  UNL1        0.0083
@<TRIPOS>BOND
     1    30    31    1
     2    31    28    1
     3    28    29    1
     4    28    24    1
     5    24    25    2
     6    24    26   am
     7    26     1    1
     8     1     2   ar
     9     2     3   ar
    10     3     4   ar
    11     4     7    1
    12     7     8   ar
    13     8    17    1
    14    17    18   ar
    15    18    19   ar
    16    19    20   ar
    17    20    21   ar
    18    21    22   ar
    19    22    23    1
    20     8     9   ar
    21     9    10   ar
    22    10    11   ar
    23    11    12   ar
    24    12    13    1
    25    12    14   ar
    26    14    15   ar
    27    15    16   ar
    28     4     5   ar
    29     5    33    1
    30    33    34    3
    31    34    35    1
    32    35    36   ar
    33    36    37   ar
    34    37    38   ar
    35    38    39   ar
    36    39    40    1
    37    39    41   ar
    38    41    42   ar
    39    42    43   ar
    40    43    44   ar
    41    44    45   ar
    42     5     6   ar
    43     6     1   ar
    44    16     7   ar
    45    45    35   ar
    46    22    17   ar
    47    16    10   ar
    48    44    38   ar
    49    31    32    1
    50    26    27    1
@<TRIPOS>MOLECULE
*****
 45 50 0 0 0
SMALL
GASTEIGER

@<TRIPOS>ATOM
      1 C          64.4543   90.2404   13.4112 C.ar    1  UNL1        0.1348
      2 C          63.7378   91.0627   12.3815 C.ar    1  UNL1        0.0346
      3 C          62.8544   90.3944   11.3700 C.ar    1  UNL1        0.0065
      4 C          62.6875   88.9039   11.3883 C.ar    1  UNL1        0.0432
      5 C          63.4040   88.0816   12.4180 C.ar    1  UNL1        0.1256
      6 N          64.2874   88.7499   13.4295 N.ar    1  UNL1       -0.2222
      7 C          61.8042   88.2357   10.3768 C.ar    1  UNL1        0.0850
      8 C          60.3508   88.5264   10.1465 C.ar    1  UNL1        0.1001
      9 N          59.8674   87.6298    9.0454 N.ar    1  UNL1       -0.2264
     10 C          61.0221   86.7848    8.5951 C.ar    1  UNL1        0.1474
     11 C          61.1383   85.7229    7.5422 C.ar    1  UNL1        0.0332
     12 C          62.4515   85.0353    7.3121 C.ar    1  UNL1       -0.0174
     13 C          62.5676   83.9734    6.2592 C.3     1  UNL1        0.0312
     14 C          63.6485   85.4097    8.1350 C.ar    1  UNL1        0.0149
     15 C          63.5323   86.4717    9.1879 C.ar    1  UNL1        0.0811
     16 N          62.2191   87.1593    9.4180 N.ar    1  UNL1       -0.2888
     17 C          59.5255   89.5365   10.8872 C.ar    1  UNL1        0.0327
     18 C          59.4580   90.9533   10.3989 C.ar    1  UNL1        0.0043
     19 C          58.6328   91.9634   11.1397 C.ar    1  UNL1        0.0207
     20 C          57.8750   91.5568   12.3687 C.ar    1  UNL1        0.0984
     21 N          57.9425   90.1401   12.8569 N.ar    1  UNL1       -0.2481
     22 C          58.7678   89.1300   12.1162 C.ar    1  UNL1        0.0609
     23 C          58.8352   87.7133   12.6045 C.3     1  UNL1        0.0521
     24 C          66.4446   91.8140   13.9701 C.2     1  UNL1        0.2414
     25 O          66.6682   92.0512   12.5059 O.2     1  UNL1       -0.2733
     26 N          65.3377   90.9086   14.4227 N.am    1  UNL1       -0.2682
     27 H          65.1909   90.7530   15.3837 H       1  UNL1        0.1563
     28 C          67.3280   92.4823   14.9815 C.3     1  UNL1        0.1319
     29 C          66.8197   92.7364   16.3698 C.3     1  UNL1        0.0270
     30 C          69.5835   93.6141   15.5991 C.3     1  UNL1        0.0862
     31 N          68.7196   92.8964   14.6049 N.3     1  UNL1       -0.2902
     32 H          69.2182   92.0467   14.3406 H       1  UNL1        0.1237
     33 C          63.2371   86.5910   12.4364 C.1     1  UNL1       -0.0404
     34 C          63.0703   85.1004   12.4547 C.1     1  UNL1       -0.0583
     35 C          62.9034   83.6098   12.4730 C.ar    1  UNL1        0.0420
     36 C          62.5697   82.9082   13.7561 C.ar    1  UNL1        0.0083
     37 C          62.4028   81.4177   13.7744 C.ar    1  UNL1        0.0018
     38 C          62.5697   80.6287   12.5096 C.ar    1  UNL1        0.0137
     39 C          62.4028   79.1381   12.5279 C.ar    1  UNL1        0.0594
     40 C          62.0691   78.4365   13.8110 C.3     1  UNL1        0.0521
     41 N          62.5696   78.3492   11.2631 N.ar    1  UNL1       -0.2481
     42 C          62.9033   79.0508    9.9799 C.ar    1  UNL1        0.0984
     43 C          63.0702   80.5414    9.9617 C.ar    1  UNL1        0.0207
     44 C          62.9033   81.3303   11.2265 C.ar    1  UNL1        0.0033
     45 C          63.0702   82.8209   11.2082 C.ar    1  UNL1        0.0083
@<TRIPOS>BOND
     1    30    31    1
     2    31    28    1
     3    28    29    1
     4    28    24    1
     5    24    25    2
     6    24    26   am
     7    26     1    1
     8     1     2   ar
     9     2     3   ar
    10     3     4   ar
    11     4     7    1
    12     7     8   ar
    13     8    17    1
    14    17    18   ar
    15    18    19   ar
    16    19    20   ar
    17    20    21   ar
    18    21    22   ar
    19    22    23    1
    20     8     9   ar
    21     9    10   ar
    22    10    11   ar
    23    11    12   ar
    24    12    13    1
    25    12    14   ar
    26    14    15   ar
    27    15    16   ar
    28     4     5   ar
    29     5    33    1
    30    33    34    3
    31    34    35    1
    32    35    36   ar
    33    36    37   ar
    34    37    38   ar
    35    38    39   ar
    36    39    40    1
    37    39    41   ar
    38    41    42   ar
    39    42    43   ar
    40    43    44   ar
    41    44    45   ar
    42     5     6   ar
    43     6     1   ar
    44    16     7   ar
    45    45    35   ar
    46    22    17   ar
    47    16    10   ar
    48    44    38   ar
    49    31    32    1
    50    26    27    1
@<TRIPOS>MOLECULE
*****
 45 50 0 0 0
SMALL
GASTEIGER

@<TRIPOS>ATOM
      1 C          59.3813   89.3502    6.8218 C.ar    1  UNL1        0.1348
      2 C          59.0957   87.8787    6.8759 C.ar    1  UNL1        0.0346
      3 C          59.7414   87.0275    7.9287 C.ar    1  UNL1        0.0065
      4 C          60.6727   87.6479    8.9276 C.ar    1  UNL1        0.0432
      5 C          60.9583   89.1194    8.8736 C.ar    1  UNL1        0.1256
      6 N          60.3126   89.9706    7.8207 N.ar    1  UNL1       -0.2222
      7 C          61.3185   86.7967    9.9804 C.ar    1  UNL1        0.0850
      8 C          61.1636   86.9598   11.4635 C.ar    1  UNL1        0.1001
      9 N          61.9819   85.8969   12.1348 N.ar    1  UNL1       -0.2264
     10 C          62.6425   85.0768   11.0666 C.ar    1  UNL1        0.1474
     11 C          63.5645   83.8956   11.1342 C.ar    1  UNL1        0.0332
     12 C          64.0765   83.2704    9.8705 C.ar    1  UNL1       -0.0174
     13 C          64.9984   82.0891    9.9382 C.3     1  UNL1        0.0312
     14 C          63.6665   83.8265    8.5390 C.ar    1  UNL1        0.0149
     15 C          62.7445   85.0077    8.4714 C.ar    1  UNL1        0.0811
     16 N          62.2325   85.6329    9.7352 N.ar    1  UNL1       -0.2888
     17 C          60.3357   88.0028   12.1540 C.ar    1  UNL1        0.0327
     18 C          58.9304   88.2665   11.7002 C.ar    1  UNL1        0.0043
     19 C          58.1025   89.3094   12.3908 C.ar    1  UNL1        0.0207
     20 C          58.6798   90.0887   13.5351 C.ar    1  UNL1        0.0984
     21 N          60.0850   89.8249   13.9889 N.ar    1  UNL1       -0.2481
     22 C          60.9129   88.7820   13.2983 C.ar    1  UNL1        0.0609
     23 C          62.3181   88.5183   13.7522 C.3     1  UNL1        0.0521
     24 C          59.5718   91.1263    4.9353 C.2     1  UNL1        0.2414
     25 O          61.0539   91.2001    5.1545 O.2     1  UNL1       -0.2733
     26 N          58.7355   90.2014    5.7690 N.am    1  UNL1       -0.2682
     27 H          57.7628   90.1529    5.6251 H       1  UNL1        0.1563
     28 C          58.9261   91.9775    3.8825 C.3     1  UNL1        0.1319
     29 C          59.7754   92.7793    2.9412 C.3     1  UNL1        0.0270
     30 C          56.5788   91.6925    4.9590 C.3     1  UNL1        0.0862
     31 N          57.4311   92.0269    3.7708 N.3     1  UNL1       -0.2902
     32 H          57.1879   92.9775    3.4921 H       1  UNL1        0.1237
     33 C          61.8897   89.7399    9.8725 C.1     1  UNL1       -0.0404
     34 C          62.8209   90.3603   10.8713 C.1     1  UNL1       -0.0583
     35 C          63.7523   90.9808   11.8702 C.ar    1  UNL1        0.0420
     36 C          64.9764   91.7102   11.4020 C.ar    1  UNL1        0.0083
     37 C          65.9077   92.3306   12.4009 C.ar    1  UNL1        0.0018
     38 C          65.6148   92.2216   13.8680 C.ar    1  UNL1        0.0137
     39 C          66.5461   92.8420   14.8669 C.ar    1  UNL1        0.0594
     40 C          67.7703   93.5714   14.3987 C.3     1  UNL1        0.0521
     41 N          66.2532   92.7330   16.3339 N.ar    1  UNL1       -0.2481
     42 C          65.0289   92.0036   16.8021 C.ar    1  UNL1        0.0984
     43 C          64.0977   91.3832   15.8032 C.ar    1  UNL1        0.0207
     44 C          64.3906   91.4922   14.3362 C.ar    1  UNL1        0.0033
     45 C          63.4593   90.8718   13.3373 C.ar    1  UNL1        0.0083
@<TRIPOS>BOND
     1    30    31    1
     2    31    28    1
     3    28    29    1
     4    28    24    1
     5    24    25    2
     6    24    26   am
     7    26     1    1
     8     1     2   ar
     9     2     3   ar
    10     3     4   ar
    11     4     7    1
    12     7     8   ar
    13     8    17    1
    14    17    18   ar
    15    18    19   ar
    16    19    20   ar
    17    20    21   ar
    18    21    22   ar
    19    22    23    1
    20     8     9   ar
    21     9    10   ar
    22    10    11   ar
    23    11    12   ar
    24    12    13    1
    25    12    14   ar
    26    14    15   ar
    27    15    16   ar
    28     4     5   ar
    29     5    33    1
    30    33    34    3
    31    34    35    1
    32    35    36   ar
    33    36    37   ar
    34    37    38   ar
    35    38    39   ar
    36    39    40    1
    37    39    41   ar
    38    41    42   ar
    39    42    43   ar
    40    43    44   ar
    41    44    45   ar
    42     5     6   ar
    43     6     1   ar
    44    16     7   ar
    45    45    35   ar
    46    22    17   ar
    47    16    10   ar
    48    44    38   ar
    49    31    32    1
    50    26    27    1
@<TRIPOS>MOLECULE
*****
 45 50 0 0 0
SMALL
GASTEIGER

@<TRIPOS>ATOM
      1 C          59.8625   90.6842    5.5601 C.ar    1  UNL1        0.1348
      2 C          59.0277   89.4454    5.6957 C.ar    1  UNL1        0.0346
      3 C          59.1347   88.6003    6.9304 C.ar    1  UNL1        0.0065
      4 C          60.0766   88.9940    8.0294 C.ar    1  UNL1        0.0432
      5 C          60.9114   90.2328    7.8938 C.ar    1  UNL1        0.1256
      6 N          60.8044   91.0779    6.6591 N.ar    1  UNL1       -0.2222
      7 C          60.1836   88.1489    9.2640 C.ar    1  UNL1        0.0850
      8 C          60.6643   86.7292    9.3218 C.ar    1  UNL1        0.1001
      9 N          60.6065   86.2780   10.7512 N.ar    1  UNL1       -0.2264
     10 C          60.0900   87.4188   11.5768 C.ar    1  UNL1        0.1474
     11 C          59.8240   87.5542   13.0468 C.ar    1  UNL1        0.0332
     12 C          59.2966   88.8459   13.5977 C.ar    1  UNL1       -0.0174
     13 C          59.0306   88.9812   15.0677 C.3     1  UNL1        0.0312
     14 C          59.0352   90.0022   12.6787 C.ar    1  UNL1        0.0149
     15 C          59.3013   89.8668   11.2087 C.ar    1  UNL1        0.0811
     16 N          59.8287   88.5751   10.6577 N.ar    1  UNL1       -0.2888
     17 C          61.1224   85.9053    8.1550 C.ar    1  UNL1        0.0327
     18 C          60.1344   85.4583    7.1185 C.ar    1  UNL1        0.0043
     19 C          60.5925   84.6344    5.9517 C.ar    1  UNL1        0.0207
     20 C          62.0385   84.2575    5.8214 C.ar    1  UNL1        0.0984
     21 N          63.0264   84.7044    6.8579 N.ar    1  UNL1       -0.2481
     22 C          62.5683   85.5283    8.0247 C.ar    1  UNL1        0.0609
     23 C          63.5563   85.9752    9.0611 C.3     1  UNL1        0.0521
     24 C          60.9925   91.9083    3.5665 C.2     1  UNL1        0.2414
     25 O          62.3367   91.4422    4.0421 O.2     1  UNL1       -0.2733
     26 N          59.7555   91.5293    4.3254 N.am    1  UNL1       -0.2682
     27 H          58.8734   91.8352    4.0133 H       1  UNL1        0.1563
     28 C          60.8855   92.7534    2.3318 C.3     1  UNL1        0.1319
     29 C          61.6375   92.3688    1.0922 C.3     1  UNL1        0.0270
     30 C          60.4808   95.2182    1.6169 C.3     1  UNL1        0.0862
     31 N          60.0266   93.9831    2.3368 N.3     1  UNL1       -0.2902
     32 H          59.1300   93.7176    1.9291 H       1  UNL1        0.1237
     33 C          61.8533   90.6265    8.9928 C.1     1  UNL1       -0.0404
     34 C          62.7952   91.0203   10.0918 C.1     1  UNL1       -0.0583
     35 C          63.7371   91.4140   11.1909 C.ar    1  UNL1        0.0420
     36 C          65.0084   92.1401   10.8648 C.ar    1  UNL1        0.0083
     37 C          65.9503   92.5338   11.9638 C.ar    1  UNL1        0.0018
     38 C          65.6207   92.2014   13.3889 C.ar    1  UNL1        0.0137
     39 C          66.5626   92.5952   14.4880 C.ar    1  UNL1        0.0594
     40 C          67.8340   93.3212   14.1619 C.3     1  UNL1        0.0521
     41 N          66.2331   92.2628   15.9131 N.ar    1  UNL1       -0.2481
     42 C          64.9616   91.5367   16.2392 C.ar    1  UNL1        0.0984
     43 C          64.0198   91.1430   15.1401 C.ar    1  UNL1        0.0207
     44 C          64.3493   91.4754   13.7150 C.ar    1  UNL1        0.0033
     45 C          63.4075   91.0817   12.6160 C.ar    1  UNL1        0.0083
@<TRIPOS>BOND
     1    30    31    1
     2    31    28    1
     3    28    29    1
     4    28    24    1
     5    24    25    2
     6    24    26   am
     7    26     1    1
     8     1     2   ar
     9     2     3   ar
    10     3     4   ar
    11     4     7    1
    12     7     8   ar
    13     8    17    1
    14    17    18   ar
    15    18    19   ar
    16    19    20   ar
    17    20    21   ar
    18    21    22   ar
    19    22    23    1
    20     8     9   ar
    21     9    10   ar
    22    10    11   ar
    23    11    12   ar
    24    12    13    1
    25    12    14   ar
    26    14    15   ar
    27    15    16   ar
    28     4     5   ar
    29     5    33    1
    30    33    34    3
    31    34    35    1
    32    35    36   ar
    33    36    37   ar
    34    37    38   ar
    35    38    39   ar
    36    39    40    1
    37    39    41   ar
    38    41    42   ar
    39    42    43   ar
    40    43    44   ar
    41    44    45   ar
    42     5     6   ar
    43     6     1   ar
    44    16     7   ar
    45    45    35   ar
    46    22    17   ar
    47    16    10   ar
    48    44    38   ar
    49    31    32    1
    50    26    27    1
@<TRIPOS>MOLECULE
*****
 45 50 0 0 0
SMALL
GASTEIGER

@<TRIPOS>ATOM
      1 C          60.7808   87.9299    8.7073 C.ar    1  UNL1        0.1348
      2 C          60.4767   86.5827    9.2925 C.ar    1  UNL1        0.0346
      3 C          61.0937   86.1753   10.5976 C.ar    1  UNL1        0.0065
      4 C          62.0148   87.1151   11.3175 C.ar    1  UNL1        0.0432
      5 C          62.3189   88.4623   10.7323 C.ar    1  UNL1        0.1256
      6 N          61.7019   88.8697    9.4272 N.ar    1  UNL1       -0.2222
      7 C          62.6318   86.7077   12.6226 C.ar    1  UNL1        0.0850
      8 C          63.2286   85.3676   12.9355 C.ar    1  UNL1        0.1001
      9 N          63.7260   85.4005   14.3503 N.ar    1  UNL1       -0.2264
     10 C          63.4366   86.7611   14.9118 C.ar    1  UNL1        0.1474
     11 C          63.7015   87.3687   16.2574 C.ar    1  UNL1        0.0332
     12 C          63.2901   88.7841   16.5352 C.ar    1  UNL1       -0.0174
     13 C          63.5550   89.3917   17.8808 C.3     1  UNL1        0.0312
     14 C          62.6139   89.5921   15.4675 C.ar    1  UNL1        0.0149
     15 C          62.3490   88.9845   14.1219 C.ar    1  UNL1        0.0811
     16 N          62.7604   87.5689   13.8440 N.ar    1  UNL1       -0.2888
     17 C          63.3132   84.1996   11.9982 C.ar    1  UNL1        0.0327
     18 C          63.8817   84.3818   10.6221 C.ar    1  UNL1        0.0043
     19 C          63.9662   83.2138    9.6848 C.ar    1  UNL1        0.0207
     20 C          63.4823   81.8635   10.1235 C.ar    1  UNL1        0.0984
     21 N          62.9139   81.6813   11.4996 N.ar    1  UNL1       -0.2481
     22 C          62.8293   82.8493   12.4369 C.ar    1  UNL1        0.0609
     23 C          62.2608   82.6669   13.8130 C.3     1  UNL1        0.0521
     24 C          59.5220   89.6861    7.2646 C.2     1  UNL1        0.2414
     25 O          59.4972   90.6275    8.4321 O.2     1  UNL1       -0.2733
     26 N          60.1638   88.3373    7.4021 N.am    1  UNL1       -0.2682
     27 H          60.1801   87.7195    6.6358 H       1  UNL1        0.1563
     28 C          58.9050   90.0934    5.9594 C.3     1  UNL1        0.1319
     29 C          59.7774   90.5483    4.8270 C.3     1  UNL1        0.0270
     30 C          56.7085   91.1560    5.0671 C.3     1  UNL1        0.0862
     31 N          57.4158   90.0460    5.7867 N.3     1  UNL1       -0.2902
     32 H          57.2054   89.1858    5.2805 H       1  UNL1        0.1237
     33 C          63.2401   89.4022   11.4522 C.1     1  UNL1       -0.0404
     34 C          64.1611   90.3421   12.1720 C.1     1  UNL1       -0.0583
     35 C          65.0823   91.2820   12.8919 C.ar    1  UNL1        0.0420
     36 C          65.1398   92.7271   12.4943 C.ar    1  UNL1        0.0083
     37 C          66.0609   93.6669   13.2142 C.ar    1  UNL1        0.0018
     38 C          66.9245   93.1615   14.3317 C.ar    1  UNL1        0.0137
     39 C          67.8456   94.1014   15.0516 C.ar    1  UNL1        0.0594
     40 C          67.9032   95.5466   14.6540 C.3     1  UNL1        0.0521
     41 N          68.7092   93.5961   16.1691 N.ar    1  UNL1       -0.2481
     42 C          68.6517   92.1508   16.5667 C.ar    1  UNL1        0.0984
     43 C          67.7306   91.2110   15.8468 C.ar    1  UNL1        0.0207
     44 C          66.8670   91.7164   14.7293 C.ar    1  UNL1        0.0033
     45 C          65.9459   90.7766   14.0095 C.ar    1  UNL1        0.0083
@<TRIPOS>BOND
     1    30    31    1
     2    31    28    1
     3    28    29    1
     4    28    24    1
     5    24    25    2
     6    24    26   am
     7    26     1    1
     8     1     2   ar
     9     2     3   ar
    10     3     4   ar
    11     4     7    1
    12     7     8   ar
    13     8    17    1
    14    17    18   ar
    15    18    19   ar
    16    19    20   ar
    17    20    21   ar
    18    21    22   ar
    19    22    23    1
    20     8     9   ar
    21     9    10   ar
    22    10    11   ar
    23    11    12   ar
    24    12    13    1
    25    12    14   ar
    26    14    15   ar
    27    15    16   ar
    28     4     5   ar
    29     5    33    1
    30    33    34    3
    31    34    35    1
    32    35    36   ar
    33    36    37   ar
    34    37    38   ar
    35    38    39   ar
    36    39    40    1
    37    39    41   ar
    38    41    42   ar
    39    42    43   ar
    40    43    44   ar
    41    44    45   ar
    42     5     6   ar
    43     6     1   ar
    44    16     7   ar
    45    45    35   ar
    46    22    17   ar
    47    16    10   ar
    48    44    38   ar
    49    31    32    1
    50    26    27    1
