@<TRIPOS>MOLECULE
*****
 30 32 0 0 0
SMALL
GASTEIGER

@<TRIPOS>ATOM
      1 C          64.1578   91.0513   12.5323 C.3     1  UNL1        0.2669
      2 N          65.2701   91.6291   13.3562 N.2     1  UNL1       -0.0890
      3 C          65.9532   92.6844   12.5378 C.2     1  UNL1        0.3741
      4 N          67.1213   93.5188   12.9726 N.pl3   1  UNL1       -0.2512
      5 N          65.2630   92.7588   11.2080 N.am    1  UNL1       -0.1416
      6 C          65.6198   93.6806   10.0798 C.3     1  UNL1        0.2160
      7 C          64.1534   91.7494   11.2046 C.2     1  UNL1        0.3314
      8 O          63.2057   91.4847   10.0724 O.2     1  UNL1       -0.2520
      9 H          67.5072   93.3958   13.8700 H       1  UNL1        0.2412
     10 H          67.5022   94.1895   12.3607 H       1  UNL1        0.2412
     11 C          62.0735   88.3667   10.4831 C.ar    1  UNL1        0.0689
     12 C          63.2356   89.1236   11.0545 C.ar    1  UNL1        0.0103
     13 C          62.9955   90.2944   11.9609 C.ar    1  UNL1        0.0281
     14 C          61.5933   90.7083   12.2959 C.ar    1  UNL1        0.0021
     15 C          60.4311   89.9515   11.7246 C.ar    1  UNL1        0.0301
     16 C          60.6712   88.7807   10.8182 C.ar    1  UNL1        0.1477
     17 F          59.5090   88.0238   10.2468 F       1  UNL1       -0.2035
     18 C          62.7938   84.8543    7.7639 C.3     1  UNL1        0.0903
     19 C          62.5537   86.0251    8.6703 C.1     1  UNL1       -0.0853
     20 C          62.3136   87.1959    9.5767 C.1     1  UNL1       -0.0621
     21 C          63.9192   90.1949   13.7404 C.ar    1  UNL1        0.0275
     22 C          64.1533   88.7150   13.6688 C.ar    1  UNL1        0.0029
     23 C          63.9148   87.8586   14.8770 C.ar    1  UNL1        0.0369
     24 C          63.4421   88.4821   16.1568 C.ar    1  UNL1        0.1443
     25 C          63.2080   89.9621   16.2284 C.ar    1  UNL1        0.0369
     26 C          63.4466   90.8184   15.0202 C.ar    1  UNL1        0.0029
     27 O          63.2035   87.6258   17.3650 O.3     1  UNL1       -0.4236
     28 C          62.8706   86.1725   17.2003 C.3     1  UNL1        0.5087
     29 F          61.4387   85.7383   17.0952 F       1  UNL1       -0.1550
     30 F          63.9697   85.1533   17.1407 F       1  UNL1       -0.1550
@<TRIPOS>BOND
     1    18    19    1
     2    19    20    3
     3    20    11    1
     4    11    12   ar
     5    12    13   ar
     6     1    13    1
     7     1    21    1
     8    21    22   ar
     9    22    23   ar
    10    23    24   ar
    11    24    27    1
    12    27    28    1
    13    28    29    1
    14    28    30    1
    15    24    25   ar
    16    25    26   ar
    17     1     2    1
    18     2     3    2
    19     3     4    1
    20     3     5    1
    21     5     6    1
    22     5     7   am
    23     7     8    2
    24    13    14   ar
    25    14    15   ar
    26    15    16   ar
    27    16    17    1
    28    16    11   ar
    29     7     1    1
    30    26    21   ar
    31     4     9    1
    32     4    10    1
@<TRIPOS>MOLECULE
*****
 30 32 0 0 0
SMALL
GASTEIGER

@<TRIPOS>ATOM
      1 C          64.0461   90.9497   12.4946 C.3     1  UNL1        0.2669
      2 N          64.0087   91.6781   11.1839 N.2     1  UNL1       -0.0890
      3 C          65.0644   92.7433   11.2153 C.2     1  UNL1        0.3741
      4 N          65.3756   93.7091   10.1106 N.pl3   1  UNL1       -0.2512
      5 N          65.7542   92.6732   12.5454 N.am    1  UNL1       -0.1416
      6 C          66.8763   93.5564   13.0043 C.3     1  UNL1        0.2160
      7 C          65.1248   91.5646   13.3361 C.2     1  UNL1        0.3314
      8 O          65.5072   91.1447   14.7244 O.2     1  UNL1       -0.2520
      9 H          64.8645   93.6765    9.2697 H       1  UNL1        0.2412
     10 H          66.0909   94.3755   10.2264 H       1  UNL1        0.2412
     11 C          63.9427   87.6899   14.7558 C.ar    1  UNL1        0.0689
     12 C          64.1394   88.5861   13.5692 C.ar    1  UNL1        0.0103
     13 C          63.8493   90.0535   13.6813 C.ar    1  UNL1        0.0281
     14 C          63.3626   90.6247   14.9800 C.ar    1  UNL1        0.0021
     15 C          63.1659   89.7285   16.1666 C.ar    1  UNL1        0.0301
     16 C          63.4559   88.2611   16.0545 C.ar    1  UNL1        0.1477
     17 F          63.2592   87.3648   17.2412 F       1  UNL1       -0.2035
     18 C          64.8130   83.2876   14.4194 C.3     1  UNL1        0.0903
     19 C          64.5229   84.7550   14.5315 C.1     1  UNL1       -0.0853
     20 C          64.2328   86.2225   14.6437 C.1     1  UNL1       -0.0621
     21 C          62.9262   90.1474   11.9012 C.ar    1  UNL1        0.0275
     22 C          61.5563   90.2074   12.5095 C.ar    1  UNL1        0.0029
     23 C          60.4364   89.4051   11.9161 C.ar    1  UNL1        0.0369
     24 C          60.6863   88.5428   10.7143 C.ar    1  UNL1        0.1443
     25 C          62.0562   88.4828   10.1060 C.ar    1  UNL1        0.0369
     26 C          63.1761   89.2852   10.6995 C.ar    1  UNL1        0.0029
     27 O          59.5664   87.7405   10.1209 O.3     1  UNL1       -0.4236
     28 C          59.5975   87.3697    8.6678 C.3     1  UNL1        0.5087
     29 F          59.8306   85.9445    8.2622 F       1  UNL1       -0.1550
     30 F          59.3954   88.4242    7.6202 F       1  UNL1       -0.1550
@<TRIPOS>BOND
     1    18    19    1
     2    19    20    3
     3    20    11    1
     4    11    12   ar
     5    12    13   ar
     6     1    13    1
     7     1    21    1
     8    21    22   ar
     9    22    23   ar
    10    23    24   ar
    11    24    27    1
    12    27    28    1
    13    28    29    1
    14    28    30    1
    15    24    25   ar
    16    25    26   ar
    17     1     2    1
    18     2     3    2
    19     3     4    1
    20     3     5    1
    21     5     6    1
    22     5     7   am
    23     7     8    2
    24    13    14   ar
    25    14    15   ar
    26    15    16   ar
    27    16    17    1
    28    16    11   ar
    29     7     1    1
    30    26    21   ar
    31     4     9    1
    32     4    10    1
@<TRIPOS>MOLECULE
*****
 30 32 0 0 0
SMALL
GASTEIGER

@<TRIPOS>ATOM
      1 C          62.8580   86.8529   12.2783 C.3     1  UNL1        0.2669
      2 N          63.8699   87.0808   13.3618 N.2     1  UNL1       -0.0890
      3 C          64.0372   85.7960   14.1175 C.2     1  UNL1        0.3741
      4 N          64.9523   85.5723   15.2848 N.pl3   1  UNL1       -0.2512
      5 N          63.1287   84.7739   13.5010 N.am    1  UNL1       -0.1416
      6 C          62.9758   83.3489   13.9435 C.3     1  UNL1        0.2160
      7 C          62.3999   85.4272   12.3643 C.2     1  UNL1        0.3314
      8 O          61.3902   84.7701   11.4705 O.2     1  UNL1       -0.2520
      9 H          65.5131   86.3093   15.6190 H       1  UNL1        0.2412
     10 H          64.9923   84.6885   15.7167 H       1  UNL1        0.2412
     11 C          61.2291   86.2439    8.7109 C.ar    1  UNL1        0.0689
     12 C          62.1871   86.1706    9.8628 C.ar    1  UNL1        0.0103
     13 C          61.8999   86.9262   11.1264 C.ar    1  UNL1        0.0281
     14 C          60.6548   87.7552   11.2381 C.ar    1  UNL1        0.0021
     15 C          59.6968   87.8285   10.0862 C.ar    1  UNL1        0.0301
     16 C          59.9840   87.0728    8.8226 C.ar    1  UNL1        0.1477
     17 F          59.0259   87.1462    7.6707 F       1  UNL1       -0.2035
     18 C          62.0905   83.9770    4.9203 C.3     1  UNL1        0.0903
     19 C          61.8033   84.7327    6.1838 C.1     1  UNL1       -0.0853
     20 C          61.5162   85.4883    7.4474 C.1     1  UNL1       -0.0621
     21 C          63.1158   88.2940   11.9515 C.ar    1  UNL1        0.0275
     22 C          63.6012   89.2298   13.0185 C.ar    1  UNL1        0.0029
     23 C          63.8590   90.6709   12.6917 C.ar    1  UNL1        0.0369
     24 C          63.6314   91.1762   11.2978 C.ar    1  UNL1        0.1443
     25 C          63.1460   90.2403   10.2307 C.ar    1  UNL1        0.0369
     26 C          62.8882   88.7992   10.5576 C.ar    1  UNL1        0.0029
     27 O          63.8892   92.6172   10.9710 O.3     1  UNL1       -0.4236
     28 C          65.2973   93.1113   10.8180 C.3     1  UNL1        0.5087
     29 F          65.6054   94.5675   11.0036 F       1  UNL1       -0.1550
     30 F          66.3972   92.1491   10.4794 F       1  UNL1       -0.1550
@<TRIPOS>BOND
     1    18    19    1
     2    19    20    3
     3    20    11    1
     4    11    12   ar
     5    12    13   ar
     6     1    13    1
     7     1    21    1
     8    21    22   ar
     9    22    23   ar
    10    23    24   ar
    11    24    27    1
    12    27    28    1
    13    28    29    1
    14    28    30    1
    15    24    25   ar
    16    25    26   ar
    17     1     2    1
    18     2     3    2
    19     3     4    1
    20     3     5    1
    21     5     6    1
    22     5     7   am
    23     7     8    2
    24    13    14   ar
    25    14    15   ar
    26    15    16   ar
    27    16    17    1
    28    16    11   ar
    29     7     1    1
    30    26    21   ar
    31     4     9    1
    32     4    10    1
@<TRIPOS>MOLECULE
*****
 30 32 0 0 0
SMALL
GASTEIGER

@<TRIPOS>ATOM
      1 C          60.7119   94.0036   -1.8363 C.3     1  UNL1        0.2669
      2 N          62.1645   93.9324   -1.4691 N.2     1  UNL1       -0.0890
      3 C          62.9683   94.0805   -2.7268 C.2     1  UNL1        0.3741
      4 N          64.4652   94.0681   -2.8231 N.pl3   1  UNL1       -0.2512
      5 N          62.0126   94.2432   -3.8714 N.am    1  UNL1       -0.1416
      6 C          62.3858   94.4221   -5.3131 C.3     1  UNL1        0.2160
      7 C          60.6179   94.1957   -3.3210 C.2     1  UNL1        0.3314
      8 O          59.3518   94.3186   -4.1158 O.2     1  UNL1       -0.2520
      9 H          65.0098   93.9548   -2.0108 H       1  UNL1        0.2412
     10 H          64.9030   94.1732   -3.6986 H       1  UNL1        0.2412
     11 C          56.9532   92.8380   -2.3503 C.ar    1  UNL1        0.0689
     12 C          58.4516   92.8056   -2.2908 C.ar    1  UNL1        0.0103
     13 C          59.2133   94.0360   -1.8958 C.ar    1  UNL1        0.0281
     14 C          58.4766   95.2987   -1.5602 C.ar    1  UNL1        0.0021
     15 C          56.9782   95.3311   -1.6197 C.ar    1  UNL1        0.0301
     16 C          56.2165   94.1008   -2.0148 C.ar    1  UNL1        0.1477
     17 F          54.7179   94.1332   -2.0742 F       1  UNL1       -0.2035
     18 C          54.6681   89.1470   -3.5355 C.3     1  UNL1        0.0903
     19 C          55.4298   90.3773   -3.1404 C.1     1  UNL1       -0.0853
     20 C          56.1915   91.6077   -2.7454 C.1     1  UNL1       -0.0621
     21 C          60.4925   93.8182   -0.3641 C.ar    1  UNL1        0.0275
     22 C          60.5523   95.0000    0.5577 C.ar    1  UNL1        0.0029
     23 C          60.3330   94.8147    2.0300 C.ar    1  UNL1        0.0369
     24 C          60.0538   93.4475    2.5805 C.ar    1  UNL1        0.1443
     25 C          59.9940   92.2657    1.6586 C.ar    1  UNL1        0.0369
     26 C          60.2133   92.4511    0.1863 C.ar    1  UNL1        0.0029
     27 O          59.8344   93.2622    4.0527 O.3     1  UNL1       -0.4236
     28 C          59.1653   92.0195    4.5607 C.3     1  UNL1        0.5087
     29 F          57.6781   91.8658    4.4405 F       1  UNL1       -0.1550
     30 F          59.9836   90.9305    5.1890 F       1  UNL1       -0.1550
@<TRIPOS>BOND
     1    18    19    1
     2    19    20    3
     3    20    11    1
     4    11    12   ar
     5    12    13   ar
     6     1    13    1
     7     1    21    1
     8    21    22   ar
     9    22    23   ar
    10    23    24   ar
    11    24    27    1
    12    27    28    1
    13    28    29    1
    14    28    30    1
    15    24    25   ar
    16    25    26   ar
    17     1     2    1
    18     2     3    2
    19     3     4    1
    20     3     5    1
    21     5     6    1
    22     5     7   am
    23     7     8    2
    24    13    14   ar
    25    14    15   ar
    26    15    16   ar
    27    16    17    1
    28    16    11   ar
    29     7     1    1
    30    26    21   ar
    31     4     9    1
    32     4    10    1
@<TRIPOS>MOLECULE
*****
 30 32 0 0 0
SMALL
GASTEIGER

@<TRIPOS>ATOM
      1 C          58.9460   94.4155   -1.9246 C.3     1  UNL1        0.2669
      2 N          57.7291   93.8774   -1.2321 N.2     1  UNL1       -0.0890
      3 C          56.5390   94.1594   -2.1005 C.2     1  UNL1        0.3741
      4 N          55.1170   93.7933   -1.7937 N.pl3   1  UNL1       -0.2512
      5 N          57.0203   94.8717   -3.3297 N.am    1  UNL1       -0.1416
      6 C          56.1644   95.3430   -4.4677 C.3     1  UNL1        0.2160
      7 C          58.5081   95.0300   -3.2209 C.2     1  UNL1        0.3314
      8 O          59.4010   95.6874   -4.2312 O.2     1  UNL1       -0.2520
      9 H          54.8994   93.3238   -0.9561 H       1  UNL1        0.2412
     10 H          54.4015   94.0224   -2.4299 H       1  UNL1        0.2412
     11 C          62.5048   94.3725   -3.6805 C.ar    1  UNL1        0.0689
     12 C          61.1365   93.9442   -3.2398 C.ar    1  UNL1        0.0103
     13 C          60.3144   94.8438   -2.3653 C.ar    1  UNL1        0.0281
     14 C          60.8606   96.1718   -1.9315 C.ar    1  UNL1        0.0021
     15 C          62.2289   96.6001   -2.3722 C.ar    1  UNL1        0.0301
     16 C          63.0510   95.7004   -3.2468 C.ar    1  UNL1        0.1477
     17 F          64.4193   96.1288   -3.6875 F       1  UNL1       -0.2035
     18 C          64.9711   91.6736   -6.3041 C.3     1  UNL1        0.0903
     19 C          64.1490   92.5732   -5.4296 C.1     1  UNL1       -0.0853
     20 C          63.3269   93.4728   -4.5551 C.1     1  UNL1       -0.0621
     21 C          59.6700   93.8905   -0.7204 C.ar    1  UNL1        0.0275
     22 C          59.6021   94.6358    0.5796 C.ar    1  UNL1        0.0029
     23 C          60.3261   94.1109    1.7838 C.ar    1  UNL1        0.0369
     24 C          61.1182   92.8406    1.6881 C.ar    1  UNL1        0.1443
     25 C          61.1861   92.0952    0.3882 C.ar    1  UNL1        0.0369
     26 C          60.4620   92.6203   -0.8161 C.ar    1  UNL1        0.0029
     27 O          61.8422   92.3156    2.8923 O.3     1  UNL1       -0.4236
     28 C          63.2196   91.7397    2.7473 C.3     1  UNL1        0.5087
     29 F          63.6152   90.5317    3.5437 F       1  UNL1       -0.1550
     30 F          64.2016   92.3718    1.8058 F       1  UNL1       -0.1550
@<TRIPOS>BOND
     1    18    19    1
     2    19    20    3
     3    20    11    1
     4    11    12   ar
     5    12    13   ar
     6     1    13    1
     7     1    21    1
     8    21    22   ar
     9    22    23   ar
    10    23    24   ar
    11    24    27    1
    12    27    28    1
    13    28    29    1
    14    28    30    1
    15    24    25   ar
    16    25    26   ar
    17     1     2    1
    18     2     3    2
    19     3     4    1
    20     3     5    1
    21     5     6    1
    22     5     7   am
    23     7     8    2
    24    13    14   ar
    25    14    15   ar
    26    15    16   ar
    27    16    17    1
    28    16    11   ar
    29     7     1    1
    30    26    21   ar
    31     4     9    1
    32     4    10    1
@<TRIPOS>MOLECULE
*****
 30 32 0 0 0
SMALL
GASTEIGER

@<TRIPOS>ATOM
      1 C          62.6495   87.3967   11.9187 C.3     1  UNL1        0.2669
      2 N          63.6255   87.3141   13.0548 N.2     1  UNL1       -0.0890
      3 C          64.0218   88.7118   13.4280 C.2     1  UNL1        0.3741
      4 N          64.9807   89.0957   14.5157 N.pl3   1  UNL1       -0.2512
      5 N          63.2908   89.6583   12.5225 N.am    1  UNL1       -0.1416
      6 C          63.3904   91.1548   12.5457 C.3     1  UNL1        0.2160
      7 C          62.4427   88.8455   11.5897 C.2     1  UNL1        0.3314
      8 O          61.5453   89.3865   10.5164 O.2     1  UNL1       -0.2520
      9 H          65.4130   88.3982   15.0596 H       1  UNL1        0.2412
     10 H          65.1778   90.0452   14.6856 H       1  UNL1        0.2412
     11 C          61.1264   86.1858    8.4598 C.ar    1  UNL1        0.0689
     12 C          62.1016   86.4162    9.5760 C.ar    1  UNL1        0.0103
     13 C          61.6742   87.1664   10.8025 C.ar    1  UNL1        0.0281
     14 C          60.2716   87.6862   10.9130 C.ar    1  UNL1        0.0021
     15 C          59.2963   87.4559    9.7969 C.ar    1  UNL1        0.0301
     16 C          59.7237   86.7057    8.5703 C.ar    1  UNL1        0.1477
     17 F          58.7484   86.4754    7.4541 F       1  UNL1       -0.2035
     18 C          62.4086   83.9352    4.7801 C.3     1  UNL1        0.0903
     19 C          61.9812   84.6854    6.0067 C.1     1  UNL1       -0.0853
     20 C          61.5538   85.4356    7.2333 C.1     1  UNL1       -0.0621
     21 C          62.6525   85.8998   12.0144 C.ar    1  UNL1        0.0275
     22 C          62.2978   85.2303   13.3090 C.ar    1  UNL1        0.0029
     23 C          62.3008   83.7333   13.4047 C.ar    1  UNL1        0.0369
     24 C          62.6584   82.9058   12.2057 C.ar    1  UNL1        0.1443
     25 C          63.0130   83.5753   10.9111 C.ar    1  UNL1        0.0369
     26 C          63.0101   85.0724   10.8154 C.ar    1  UNL1        0.0029
     27 O          62.6613   81.4089   12.3013 O.3     1  UNL1       -0.4236
     28 C          62.1545   80.7357   13.5423 C.3     1  UNL1        0.5087
     29 F          63.0999   79.9695   14.4193 F       1  UNL1       -0.1550
     30 F          60.7022   80.8286   13.9061 F       1  UNL1       -0.1550
@<TRIPOS>BOND
     1    18    19    1
     2    19    20    3
     3    20    11    1
     4    11    12   ar
     5    12    13   ar
     6     1    13    1
     7     1    21    1
     8    21    22   ar
     9    22    23   ar
    10    23    24   ar
    11    24    27    1
    12    27    28    1
    13    28    29    1
    14    28    30    1
    15    24    25   ar
    16    25    26   ar
    17     1     2    1
    18     2     3    2
    19     3     4    1
    20     3     5    1
    21     5     6    1
    22     5     7   am
    23     7     8    2
    24    13    14   ar
    25    14    15   ar
    26    15    16   ar
    27    16    17    1
    28    16    11   ar
    29     7     1    1
    30    26    21   ar
    31     4     9    1
    32     4    10    1
@<TRIPOS>MOLECULE
*****
 30 32 0 0 0
SMALL
GASTEIGER

@<TRIPOS>ATOM
      1 C          62.8219   84.7770   12.8727 C.3     1  UNL1        0.2669
      2 N          62.8771   84.9861   14.3570 N.2     1  UNL1       -0.0890
      3 C          62.6569   83.6589   15.0205 C.2     1  UNL1        0.3741
      4 N          62.6323   83.4055   16.4988 N.pl3   1  UNL1       -0.2512
      5 N          62.4656   82.6296   13.9463 N.am    1  UNL1       -0.1416
      6 C          62.2162   81.1663   14.1617 C.3     1  UNL1        0.2160
      7 C          62.5676   83.3207   12.6188 C.2     1  UNL1        0.3314
      8 O          62.4380   82.6696   11.2737 O.2     1  UNL1       -0.2520
      9 H          62.7687   84.1501   17.1282 H       1  UNL1        0.2412
     10 H          62.4797   82.4946   16.8396 H       1  UNL1        0.2412
     11 C          61.7866   85.8162    9.1851 C.ar    1  UNL1        0.0689
     12 C          61.7888   85.7165   10.6817 C.ar    1  UNL1        0.0103
     13 C          62.8197   84.8767   11.3760 C.ar    1  UNL1        0.0281
     14 C          63.8485   84.1367   10.5735 C.ar    1  UNL1        0.0021
     15 C          63.8464   84.2365    9.0769 C.ar    1  UNL1        0.0301
     16 C          62.8154   85.0762    8.3827 C.ar    1  UNL1        0.1477
     17 F          62.8133   85.1760    6.8859 F       1  UNL1       -0.2035
     18 C          58.6938   88.3355    7.1025 C.3     1  UNL1        0.0903
     19 C          59.7247   87.4958    7.7967 C.1     1  UNL1       -0.0853
     20 C          60.7557   86.6560    8.4909 C.1     1  UNL1       -0.0621
     21 C          63.0757   86.2541   12.8137 C.ar    1  UNL1        0.0275
     22 C          62.4627   87.0774   11.7198 C.ar    1  UNL1        0.0029
     23 C          62.7165   88.5545   11.6608 C.ar    1  UNL1        0.0369
     24 C          63.5834   89.2086   12.6956 C.ar    1  UNL1        0.1443
     25 C          64.1965   88.3853   13.7895 C.ar    1  UNL1        0.0369
     26 C          63.9426   86.9081   13.8485 C.ar    1  UNL1        0.0029
     27 O          63.8373   90.6857   12.6366 O.3     1  UNL1       -0.4236
     28 C          64.0022   91.3660   11.3099 C.3     1  UNL1        0.5087
     29 F          62.8333   91.4845   10.3774 F       1  UNL1       -0.1550
     30 F          65.3361   91.9277   10.9157 F       1  UNL1       -0.1550
@<TRIPOS>BOND
     1    18    19    1
     2    19    20    3
     3    20    11    1
     4    11    12   ar
     5    12    13   ar
     6     1    13    1
     7     1    21    1
     8    21    22   ar
     9    22    23   ar
    10    23    24   ar
    11    24    27    1
    12    27    28    1
    13    28    29    1
    14    28    30    1
    15    24    25   ar
    16    25    26   ar
    17     1     2    1
    18     2     3    2
    19     3     4    1
    20     3     5    1
    21     5     6    1
    22     5     7   am
    23     7     8    2
    24    13    14   ar
    25    14    15   ar
    26    15    16   ar
    27    16    17    1
    28    16    11   ar
    29     7     1    1
    30    26    21   ar
    31     4     9    1
    32     4    10    1
@<TRIPOS>MOLECULE
*****
 30 32 0 0 0
SMALL
GASTEIGER

@<TRIPOS>ATOM
      1 C          62.8643   85.4627   11.2411 C.3     1  UNL1        0.2669
      2 N          63.4634   84.0966   11.3984 N.2     1  UNL1       -0.0890
      3 C          63.6071   83.4935   10.0325 C.2     1  UNL1        0.3741
      4 N          64.1635   82.1355    9.7223 N.pl3   1  UNL1       -0.2512
      5 N          63.0969   84.4870    9.0310 N.am    1  UNL1       -0.1416
      6 C          63.0534   84.2968    7.5439 C.3     1  UNL1        0.2160
      7 C          62.6377   85.7040    9.7781 C.2     1  UNL1        0.3314
      8 O          62.0545   86.9445    9.1690 O.2     1  UNL1       -0.2520
      9 H          64.4748   81.5527   10.4521 H       1  UNL1        0.2412
     10 H          64.2173   81.8270    8.7890 H       1  UNL1        0.2412
     11 C          62.6200   89.3928   11.7360 C.ar    1  UNL1        0.0689
     12 C          63.1970   88.0170   11.5806 C.ar    1  UNL1        0.0103
     13 C          62.2872   86.8386   11.3966 C.ar    1  UNL1        0.0281
     14 C          60.8006   87.0361   11.3681 C.ar    1  UNL1        0.0021
     15 C          60.2237   88.4119   11.5235 C.ar    1  UNL1        0.0301
     16 C          61.1334   89.5903   11.7075 C.ar    1  UNL1        0.1477
     17 F          60.5564   90.9661   11.8629 F       1  UNL1       -0.2035
     18 C          65.3492   92.9280   12.2879 C.3     1  UNL1        0.0903
     19 C          64.4395   91.7496   12.1039 C.1     1  UNL1       -0.0853
     20 C          63.5297   90.5712   11.9200 C.1     1  UNL1       -0.0621
     21 C          62.9701   85.5091   12.7367 C.ar    1  UNL1        0.0275
     22 C          62.1370   84.5868   13.5765 C.ar    1  UNL1        0.0029
     23 C          62.2428   84.6331   15.0720 C.ar    1  UNL1        0.0369
     24 C          63.1819   85.6018   15.7278 C.ar    1  UNL1        0.1443
     25 C          64.0151   86.5241   14.8880 C.ar    1  UNL1        0.0369
     26 C          63.9092   86.4777   13.3924 C.ar    1  UNL1        0.0029
     27 O          63.2878   85.6481   17.2233 O.3     1  UNL1       -0.4236
     28 C          62.8828   86.8870   17.9658 C.3     1  UNL1        0.5087
     29 F          62.6672   88.1710   17.2211 F       1  UNL1       -0.1550
     30 F          62.6934   86.8417   19.4532 F       1  UNL1       -0.1550
@<TRIPOS>BOND
     1    18    19    1
     2    19    20    3
     3    20    11    1
     4    11    12   ar
     5    12    13   ar
     6     1    13    1
     7     1    21    1
     8    21    22   ar
     9    22    23   ar
    10    23    24   ar
    11    24    27    1
    12    27    28    1
    13    28    29    1
    14    28    30    1
    15    24    25   ar
    16    25    26   ar
    17     1     2    1
    18     2     3    2
    19     3     4    1
    20     3     5    1
    21     5     6    1
    22     5     7   am
    23     7     8    2
    24    13    14   ar
    25    14    15   ar
    26    15    16   ar
    27    16    17    1
    28    16    11   ar
    29     7     1    1
    30    26    21   ar
    31     4     9    1
    32     4    10    1
@<TRIPOS>MOLECULE
*****
 30 32 0 0 0
SMALL
GASTEIGER

@<TRIPOS>ATOM
      1 C          60.5951   94.8221   -2.9274 C.3     1  UNL1        0.2669
      2 N          62.0885   94.8952   -3.0482 N.2     1  UNL1       -0.0890
      3 C          62.4170   95.4765   -4.3913 C.2     1  UNL1        0.3741
      4 N          63.7940   95.7276   -4.9305 N.pl3   1  UNL1       -0.2512
      5 N          61.1267   95.7628   -5.1008 N.am    1  UNL1       -0.1416
      6 C          60.9869   96.3503   -6.4737 C.3     1  UNL1        0.2160
      7 C          60.0007   95.3583   -4.1959 C.2     1  UNL1        0.3314
      8 O          58.5372   95.4704   -4.5054 O.2     1  UNL1       -0.2520
      9 H          64.5838   95.5052   -4.3864 H       1  UNL1        0.2412
     10 H          63.9080   96.1148   -5.8285 H       1  UNL1        0.2412
     11 C          57.0203   93.1608   -2.4679 C.ar    1  UNL1        0.0689
     12 C          58.4519   93.3545   -2.8714 C.ar    1  UNL1        0.0103
     13 C          59.1634   94.6285   -2.5238 C.ar    1  UNL1        0.0281
     14 C          58.4432   95.7088   -1.7727 C.ar    1  UNL1        0.0021
     15 C          57.0116   95.5151   -1.3692 C.ar    1  UNL1        0.0301
     16 C          56.3002   94.2411   -1.7167 C.ar    1  UNL1        0.1477
     17 F          54.8685   94.0475   -1.3131 F       1  UNL1       -0.2035
     18 C          54.8860   89.3389   -3.5106 C.3     1  UNL1        0.0903
     19 C          55.5974   90.6129   -3.1630 C.1     1  UNL1       -0.0853
     20 C          56.3089   91.8869   -2.8154 C.1     1  UNL1       -0.0621
     21 C          60.8902   94.2454   -1.5745 C.ar    1  UNL1        0.0275
     22 C          60.6885   92.7804   -1.3235 C.ar    1  UNL1        0.0029
     23 C          60.9837   92.2037    0.0294 C.ar    1  UNL1        0.0369
     24 C          61.4805   93.0921    1.1313 C.ar    1  UNL1        0.1443
     25 C          61.6822   94.5571    0.8802 C.ar    1  UNL1        0.0369
     26 C          61.3871   95.1338   -0.4727 C.ar    1  UNL1        0.0029
     27 O          61.7756   92.5154    2.4842 O.3     1  UNL1       -0.4236
     28 C          63.0795   91.8169    2.7336 C.3     1  UNL1        0.5087
     29 F          64.3251   92.2840    2.0407 F       1  UNL1       -0.1550
     30 F          63.1376   90.6512    3.6760 F       1  UNL1       -0.1550
@<TRIPOS>BOND
     1    18    19    1
     2    19    20    3
     3    20    11    1
     4    11    12   ar
     5    12    13   ar
     6     1    13    1
     7     1    21    1
     8    21    22   ar
     9    22    23   ar
    10    23    24   ar
    11    24    27    1
    12    27    28    1
    13    28    29    1
    14    28    30    1
    15    24    25   ar
    16    25    26   ar
    17     1     2    1
    18     2     3    2
    19     3     4    1
    20     3     5    1
    21     5     6    1
    22     5     7   am
    23     7     8    2
    24    13    14   ar
    25    14    15   ar
    26    15    16   ar
    27    16    17    1
    28    16    11   ar
    29     7     1    1
    30    26    21   ar
    31     4     9    1
    32     4    10    1
