@<TRIPOS>MOLECULE
*****
 35 38 0 0 0
SMALL
GASTEIGER

@<TRIPOS>ATOM
      1 C          64.5751   85.6168   14.5588 C.2     1  UNL1        0.2015
      2 O          66.0025   85.1815   14.7104 O.2     1  UNL1       -0.2864
      3 C          63.9666   86.5545   15.5590 C.ar    1  UNL1        0.0611
      4 C          63.2293   86.1586   16.8039 C.ar    1  UNL1        0.1037
      5 N          62.7956   87.4123   17.5041 N.ar    1  UNL1       -0.2269
      6 C          63.2649   88.5829   16.6921 C.ar    1  UNL1        0.1407
      7 N          63.1267   90.0630   16.8920 N.ar    1  UNL1       -0.3374
      8 C          63.7123   91.0131   15.8897 C.ar    1  UNL1        0.0735
      9 C          64.4360   90.4829   14.6876 C.ar    1  UNL1        0.0201
     10 C          64.5742   89.0028   14.4877 C.ar    1  UNL1        0.0047
     11 C          63.9886   88.0528   15.4899 C.ar    1  UNL1        0.0386
     12 H          62.6517   90.4110   17.6810 H       1  UNL1        0.1674
     13 C          65.0216   91.4330   13.6853 C.ar    1  UNL1        0.0398
     14 C          66.2212   92.2582   14.0459 C.ar    1  UNL1        0.1018
     15 N          66.8067   93.2083   13.0436 N.ar    1  UNL1       -0.2291
     16 C          66.1926   93.3332   11.6808 C.ar    1  UNL1        0.1396
     17 C          66.7781   94.2832   10.6785 C.3     1  UNL1        0.0737
     18 N          64.9929   92.5080   11.3202 N.ar    1  UNL1       -0.2291
     19 C          64.4074   91.5579   12.3225 C.ar    1  UNL1        0.1018
     20 C          62.3995   85.5762   11.2399 C.ar    1  UNL1        0.0920
     21 C          62.1182   84.1092   11.1033 C.ar    1  UNL1        0.0204
     22 C          62.6558   83.1447   12.1185 C.ar    1  UNL1        0.0312
     23 C          63.4748   83.6471   13.2703 C.ar    1  UNL1        0.1454
     24 F          64.0124   82.6827   14.2856 F       1  UNL1       -0.2040
     25 C          63.7561   85.1142   13.4069 C.ar    1  UNL1        0.0951
     26 C          63.2184   86.0787   12.3917 C.ar    1  UNL1        0.1598
     27 F          63.4998   87.5457   12.5284 F       1  UNL1       -0.2026
     28 N          61.8618   86.5407   10.2247 N.pl3   1  UNL1       -0.2166
     29 H          61.7211   87.4842   10.4682 H       1  UNL1        0.1734
     30 S          61.5386   86.0677    8.8384 S.O2    1  UNL1        0.0540
     31 O          62.9913   85.7828    8.5969 O.2     1  UNL1       -0.1545
     32 O          60.0859   86.3526    9.0799 O.2     1  UNL1       -0.1545
     33 C          61.2153   85.5947    7.4522 C.3     1  UNL1        0.1724
     34 C          61.8214   84.1036    5.4126 C.3     1  UNL1        0.0019
     35 C          62.2276   84.8089    6.6726 C.3     1  UNL1        0.0273
@<TRIPOS>BOND
     1    34    35    1
     2    35    33    1
     3    33    30    1
     4    30    31    2
     5    30    32    2
     6    30    28    1
     7    28    20    1
     8    20    21   ar
     9    21    22   ar
    10    22    23   ar
    11    23    24    1
    12    23    25   ar
    13    25     1    1
    14     1     2    2
    15     1     3    1
    16     3     4   ar
    17     4     5   ar
    18     5     6   ar
    19     6     7   ar
    20     7     8   ar
    21     8     9   ar
    22     9    13    1
    23    13    14   ar
    24    14    15   ar
    25    15    16   ar
    26    16    17    1
    27    16    18   ar
    28    18    19   ar
    29     9    10   ar
    30    10    11   ar
    31    25    26   ar
    32    26    27    1
    33    26    20   ar
    34    11     3   ar
    35    11     6    1
    36    19    13   ar
    37    28    29    1
    38     7    12    1
@<TRIPOS>MOLECULE
*****
 35 38 0 0 0
SMALL
GASTEIGER

@<TRIPOS>ATOM
      1 C          64.6893   85.5935   14.7010 C.2     1  UNL1        0.2015
      2 O          66.1696   85.3671   14.7854 O.2     1  UNL1       -0.2864
      3 C          64.0219   86.5502   15.6440 C.ar    1  UNL1        0.0611
      4 C          63.2523   86.1802   16.8772 C.ar    1  UNL1        0.1037
      5 N          62.7617   87.4463   17.5146 N.ar    1  UNL1       -0.2269
      6 C          63.2281   88.5988   16.6754 C.ar    1  UNL1        0.1407
      7 N          63.0441   90.0809   16.8147 N.ar    1  UNL1       -0.3374
      8 C          63.6391   91.0092   15.7978 C.ar    1  UNL1        0.0735
      9 C          64.4180   90.4554   14.6416 C.ar    1  UNL1        0.0201
     10 C          64.6019   88.9733   14.5024 C.ar    1  UNL1        0.0047
     11 C          64.0069   88.0450   15.5193 C.ar    1  UNL1        0.0386
     12 H          62.5329   90.4443   17.5735 H       1  UNL1        0.1674
     13 C          65.0130   91.3839   13.6247 C.ar    1  UNL1        0.0398
     14 C          66.2554   92.1579   13.9520 C.ar    1  UNL1        0.1018
     15 N          66.8504   93.0863   12.9350 N.ar    1  UNL1       -0.2291
     16 C          66.2029   93.2407   11.5908 C.ar    1  UNL1        0.1396
     17 C          66.7978   94.1690   10.5739 C.3     1  UNL1        0.0737
     18 N          64.9604   92.4665   11.2636 N.ar    1  UNL1       -0.2291
     19 C          64.3655   91.5382   12.2805 C.ar    1  UNL1        0.1018
     20 C          62.4621   84.8823   11.4941 C.ar    1  UNL1        0.0920
     21 C          62.2503   83.4025   11.6186 C.ar    1  UNL1        0.0204
     22 C          62.8515   82.6531   12.7705 C.ar    1  UNL1        0.0312
     23 C          63.6645   83.3834   13.7980 C.ar    1  UNL1        0.1454
     24 F          64.2657   82.6340   14.9499 F       1  UNL1       -0.2040
     25 C          63.8763   84.8631   13.6735 C.ar    1  UNL1        0.0951
     26 C          63.2751   85.6125   12.5216 C.ar    1  UNL1        0.1598
     27 F          63.4869   87.0923   12.3972 F       1  UNL1       -0.2026
     28 N          61.8608   85.6317   10.3422 N.pl3   1  UNL1       -0.2166
     29 H          61.6656   85.1634    9.4985 H       1  UNL1        0.1734
     30 S          61.5572   87.0945   10.4758 S.O2    1  UNL1        0.0540
     31 O          60.5974   86.7936   11.5887 O.2     1  UNL1       -0.1545
     32 O          62.5169   87.3954    9.3630 O.2     1  UNL1       -0.1545
     33 C          61.2535   88.5573   10.6094 C.3     1  UNL1        0.1724
     34 C          59.6321   90.4591   11.3196 C.3     1  UNL1        0.0019
     35 C          59.9878   89.0025   11.2800 C.3     1  UNL1        0.0273
@<TRIPOS>BOND
     1    34    35    1
     2    35    33    1
     3    33    30    1
     4    30    31    2
     5    30    32    2
     6    30    28    1
     7    28    20    1
     8    20    21   ar
     9    21    22   ar
    10    22    23   ar
    11    23    24    1
    12    23    25   ar
    13    25     1    1
    14     1     2    2
    15     1     3    1
    16     3     4   ar
    17     4     5   ar
    18     5     6   ar
    19     6     7   ar
    20     7     8   ar
    21     8     9   ar
    22     9    13    1
    23    13    14   ar
    24    14    15   ar
    25    15    16   ar
    26    16    17    1
    27    16    18   ar
    28    18    19   ar
    29     9    10   ar
    30    10    11   ar
    31    25    26   ar
    32    26    27    1
    33    26    20   ar
    34    11     3   ar
    35    11     6    1
    36    19    13   ar
    37    28    29    1
    38     7    12    1
@<TRIPOS>MOLECULE
*****
 35 38 0 0 0
SMALL
GASTEIGER

@<TRIPOS>ATOM
      1 C          64.8887   85.8038   14.7346 C.2     1  UNL1        0.2015
      2 O          66.3827   85.7114   14.8307 O.2     1  UNL1       -0.2864
      3 C          64.1362   86.7431   15.6298 C.ar    1  UNL1        0.0611
      4 C          63.3233   86.3563   16.8296 C.ar    1  UNL1        0.1037
      5 N          62.7491   87.6083   17.4236 N.ar    1  UNL1       -0.2269
      6 C          63.2071   88.7688   16.5909 C.ar    1  UNL1        0.1407
      7 N          62.9543   90.2434   16.6990 N.ar    1  UNL1       -0.3374
      8 C          63.5588   91.1832   15.6984 C.ar    1  UNL1        0.0735
      9 C          64.4160   90.6485   14.5897 C.ar    1  UNL1        0.0201
     10 C          64.6688   89.1740   14.4816 C.ar    1  UNL1        0.0047
     11 C          64.0644   88.2341   15.4822 C.ar    1  UNL1        0.0386
     12 H          62.3917   90.5943   17.4267 H       1  UNL1        0.1674
     13 C          65.0205   91.5884   13.5890 C.ar    1  UNL1        0.0398
     14 C          66.1635   92.4743   13.9873 C.ar    1  UNL1        0.1018
     15 N          66.7680   93.4142   12.9867 N.ar    1  UNL1       -0.2291
     16 C          66.2294   93.4682   11.5878 C.ar    1  UNL1        0.1396
     17 C          66.8338   94.4081   10.5871 C.3     1  UNL1        0.0737
     18 N          65.0863   92.5823   11.1895 N.ar    1  UNL1       -0.2291
     19 C          64.4819   91.6425   12.1901 C.ar    1  UNL1        0.1018
     20 C          63.4400   82.6149   12.8684 C.ar    1  UNL1        0.0920
     21 C          62.6642   83.2631   11.7602 C.ar    1  UNL1        0.0204
     22 C          62.6300   84.7581   11.6435 C.ar    1  UNL1        0.0312
     23 C          63.3714   85.6051   12.6349 C.ar    1  UNL1        0.1454
     24 F          63.3371   87.1001   12.5182 F       1  UNL1       -0.2040
     25 C          64.1472   84.9569   13.7431 C.ar    1  UNL1        0.0951
     26 C          64.1815   83.4618   13.8598 C.ar    1  UNL1        0.1598
     27 F          64.9573   82.8137   14.9680 F       1  UNL1       -0.2026
     28 N          63.4743   81.1198   12.9851 N.pl3   1  UNL1       -0.2166
     29 H          64.2907   80.6258   12.7427 H       1  UNL1        0.1734
     30 S          62.2649   80.3776   13.4711 S.O2    1  UNL1        0.0540
     31 O          62.3801   79.4314   12.3130 O.2     1  UNL1       -0.1545
     32 O          62.1496   81.3238   14.6293 O.2     1  UNL1       -0.1545
     33 C          61.0554   79.6354   13.9572 C.3     1  UNL1        0.1724
     34 C          58.5417   79.6203   14.6139 C.3     1  UNL1        0.0019
     35 C          59.7759   80.3743   14.2162 C.3     1  UNL1        0.0273
@<TRIPOS>BOND
     1    34    35    1
     2    35    33    1
     3    33    30    1
     4    30    31    2
     5    30    32    2
     6    30    28    1
     7    28    20    1
     8    20    21   ar
     9    21    22   ar
    10    22    23   ar
    11    23    24    1
    12    23    25   ar
    13    25     1    1
    14     1     2    2
    15     1     3    1
    16     3     4   ar
    17     4     5   ar
    18     5     6   ar
    19     6     7   ar
    20     7     8   ar
    21     8     9   ar
    22     9    13    1
    23    13    14   ar
    24    14    15   ar
    25    15    16   ar
    26    16    17    1
    27    16    18   ar
    28    18    19   ar
    29     9    10   ar
    30    10    11   ar
    31    25    26   ar
    32    26    27    1
    33    26    20   ar
    34    11     3   ar
    35    11     6    1
    36    19    13   ar
    37    28    29    1
    38     7    12    1
@<TRIPOS>MOLECULE
*****
 35 38 0 0 0
SMALL
GASTEIGER

@<TRIPOS>ATOM
      1 C          63.1583   90.3558   12.9217 C.2     1  UNL1        0.2015
      2 O          62.5551   90.0497   14.2605 O.2     1  UNL1       -0.2864
      3 C          62.4748   89.8959   11.6682 C.ar    1  UNL1        0.0611
      4 C          61.8794   90.7804   10.6132 C.ar    1  UNL1        0.1037
      5 N          61.3034   89.9018    9.5426 N.ar    1  UNL1       -0.2269
      6 C          61.5428   88.4742    9.9360 C.ar    1  UNL1        0.1407
      7 N          61.1950   87.1771    9.2677 N.ar    1  UNL1       -0.3374
      8 C          61.5713   85.8764    9.9131 C.ar    1  UNL1        0.0735
      9 C          62.2953   85.8728   11.2268 C.ar    1  UNL1        0.0201
     10 C          62.6430   87.1698   11.8951 C.ar    1  UNL1        0.0047
     11 C          62.2668   88.4705   11.2497 C.ar    1  UNL1        0.0386
     12 H          60.7199   87.1795    8.4054 H       1  UNL1        0.1674
     13 C          62.6715   84.5720   11.8722 C.ar    1  UNL1        0.0398
     14 C          62.5442   84.4073   13.3576 C.ar    1  UNL1        0.1018
     15 N          62.9205   83.1065   14.0030 N.ar    1  UNL1       -0.2291
     16 C          63.4240   81.9704   13.1629 C.ar    1  UNL1        0.1396
     17 C          63.8003   80.6697   13.8082 C.3     1  UNL1        0.0737
     18 N          63.5513   82.1352   11.6773 N.ar    1  UNL1       -0.2291
     19 C          63.1751   83.4359   11.0320 C.ar    1  UNL1        0.1018
     20 C          66.1337   92.5380   11.4603 C.ar    1  UNL1        0.0920
     21 C          67.0186   92.6543   12.6658 C.ar    1  UNL1        0.0204
     22 C          66.6167   92.0045   13.9567 C.ar    1  UNL1        0.0312
     23 C          65.3300   91.2384   14.0420 C.ar    1  UNL1        0.1454
     24 F          64.9282   90.5886   15.3329 F       1  UNL1       -0.2040
     25 C          64.4451   91.1220   12.8364 C.ar    1  UNL1        0.0951
     26 C          64.8470   91.7718   11.5456 C.ar    1  UNL1        0.1598
     27 F          63.9620   91.6554   10.3400 F       1  UNL1       -0.2026
     28 N          66.5355   93.1878   10.1694 N.pl3   1  UNL1       -0.2166
     29 H          66.6307   92.6448    9.3537 H       1  UNL1        0.1734
     30 S          66.7924   94.6648   10.1214 S.O2    1  UNL1        0.0540
     31 O          65.3735   94.9249   10.5326 O.2     1  UNL1       -0.1545
     32 O          68.2113   94.4047    9.7102 O.2     1  UNL1       -0.1545
     33 C          67.0494   96.1418   10.0734 C.3     1  UNL1        0.1724
     34 C          66.3382   96.8555    7.6785 C.3     1  UNL1        0.0019
     35 C          67.3694   96.8053    8.7667 C.3     1  UNL1        0.0273
@<TRIPOS>BOND
     1    34    35    1
     2    35    33    1
     3    33    30    1
     4    30    31    2
     5    30    32    2
     6    30    28    1
     7    28    20    1
     8    20    21   ar
     9    21    22   ar
    10    22    23   ar
    11    23    24    1
    12    23    25   ar
    13    25     1    1
    14     1     2    2
    15     1     3    1
    16     3     4   ar
    17     4     5   ar
    18     5     6   ar
    19     6     7   ar
    20     7     8   ar
    21     8     9   ar
    22     9    13    1
    23    13    14   ar
    24    14    15   ar
    25    15    16   ar
    26    16    17    1
    27    16    18   ar
    28    18    19   ar
    29     9    10   ar
    30    10    11   ar
    31    25    26   ar
    32    26    27    1
    33    26    20   ar
    34    11     3   ar
    35    11     6    1
    36    19    13   ar
    37    28    29    1
    38     7    12    1
@<TRIPOS>MOLECULE
*****
 35 38 0 0 0
SMALL
GASTEIGER

@<TRIPOS>ATOM
      1 C          62.5820   89.6869   11.9089 C.2     1  UNL1        0.2015
      2 O          61.9526   90.6875   10.9856 O.2     1  UNL1       -0.2864
      3 C          63.4036   90.1541   13.0737 C.ar    1  UNL1        0.0611
      4 C          63.3590   89.5950   14.4649 C.ar    1  UNL1        0.1037
      5 N          64.3420   90.3578   15.3027 N.ar    1  UNL1       -0.2269
      6 C          64.9941   91.3884   14.4293 C.ar    1  UNL1        0.1407
      7 N          66.0410   92.4251   14.7105 N.ar    1  UNL1       -0.3374
      8 C          66.5080   93.3359   13.6140 C.ar    1  UNL1        0.0735
      9 C          65.9280   93.2100   12.2364 C.ar    1  UNL1        0.0201
     10 C          64.8811   92.1733   11.9553 C.ar    1  UNL1        0.0047
     11 C          64.4141   91.2625   13.0517 C.ar    1  UNL1        0.0386
     12 H          66.4216   92.5077   15.6147 H       1  UNL1        0.1674
     13 C          66.3951   94.1210   11.1399 C.ar    1  UNL1        0.0398
     14 C          67.1602   93.5633    9.9765 C.ar    1  UNL1        0.1018
     15 N          67.6272   94.4742    8.8800 N.ar    1  UNL1       -0.2291
     16 C          67.3291   95.9428    8.9471 C.ar    1  UNL1        0.1396
     17 C          67.7961   96.8537    7.8507 C.3     1  UNL1        0.0737
     18 N          66.5639   96.5004   10.1106 N.ar    1  UNL1       -0.2291
     19 C          66.0970   95.5895   11.2070 C.ar    1  UNL1        0.1018
     20 C          62.9730   85.7507   12.2310 C.ar    1  UNL1        0.0920
     21 C          62.0052   85.2832   11.1847 C.ar    1  UNL1        0.0204
     22 C          61.2297   86.2835   10.3798 C.ar    1  UNL1        0.0312
     23 C          61.4219   87.7514   10.6212 C.ar    1  UNL1        0.1454
     24 F          60.6464   88.7518    9.8163 F       1  UNL1       -0.2040
     25 C          62.3897   88.2189   11.6675 C.ar    1  UNL1        0.0951
     26 C          63.1653   87.2186   12.4724 C.ar    1  UNL1        0.1598
     27 F          64.1331   87.6862   13.5187 F       1  UNL1       -0.2026
     28 N          63.7486   84.7503   13.0359 N.pl3   1  UNL1       -0.2166
     29 H          64.7322   84.7892   13.0538 H       1  UNL1        0.1734
     30 S          63.0255   83.6908   13.8134 S.O2    1  UNL1        0.0540
     31 O          62.5673   84.7259   14.7976 O.2     1  UNL1       -0.1545
     32 O          63.4838   82.6558   12.8292 O.2     1  UNL1       -0.1545
     33 C          62.3025   82.6313   14.5909 C.3     1  UNL1        0.1724
     34 C          60.6301   80.6911   14.1559 C.3     1  UNL1        0.0019
     35 C          61.9765   81.3175   13.9444 C.3     1  UNL1        0.0273
@<TRIPOS>BOND
     1    34    35    1
     2    35    33    1
     3    33    30    1
     4    30    31    2
     5    30    32    2
     6    30    28    1
     7    28    20    1
     8    20    21   ar
     9    21    22   ar
    10    22    23   ar
    11    23    24    1
    12    23    25   ar
    13    25     1    1
    14     1     2    2
    15     1     3    1
    16     3     4   ar
    17     4     5   ar
    18     5     6   ar
    19     6     7   ar
    20     7     8   ar
    21     8     9   ar
    22     9    13    1
    23    13    14   ar
    24    14    15   ar
    25    15    16   ar
    26    16    17    1
    27    16    18   ar
    28    18    19   ar
    29     9    10   ar
    30    10    11   ar
    31    25    26   ar
    32    26    27    1
    33    26    20   ar
    34    11     3   ar
    35    11     6    1
    36    19    13   ar
    37    28    29    1
    38     7    12    1
@<TRIPOS>MOLECULE
*****
 35 38 0 0 0
SMALL
GASTEIGER

@<TRIPOS>ATOM
      1 C          64.3260   90.4792   14.4308 C.2     1  UNL1        0.2015
      2 O          63.3620   91.2076   15.3195 O.2     1  UNL1       -0.2864
      3 C          64.2605   88.9849   14.3186 C.ar    1  UNL1        0.0611
      4 C          64.8918   88.0016   15.2591 C.ar    1  UNL1        0.1037
      5 N          64.5736   86.6205   14.7680 N.ar    1  UNL1       -0.2269
      6 C          63.7456   86.7501   13.5239 C.ar    1  UNL1        0.1407
      7 N          63.1429   85.7264   12.6082 N.ar    1  UNL1       -0.3374
      8 C          62.3467   86.1640   11.4147 C.ar    1  UNL1        0.0735
      9 C          62.1531   87.6253   11.1370 C.ar    1  UNL1        0.0201
     10 C          62.7558   88.6490   12.0527 C.ar    1  UNL1        0.0047
     11 C          63.5521   88.2114   13.2462 C.ar    1  UNL1        0.0386
     12 H          63.2699   84.7673   12.7905 H       1  UNL1        0.1674
     13 C          61.3568   88.0628    9.9434 C.ar    1  UNL1        0.0398
     14 C          60.9507   87.0603    8.9042 C.ar    1  UNL1        0.1018
     15 N          60.1544   87.4978    7.7107 N.ar    1  UNL1       -0.2291
     16 C          59.7642   88.9379    7.5563 C.ar    1  UNL1        0.1396
     17 C          58.9680   89.3755    6.3629 C.3     1  UNL1        0.0737
     18 N          60.1703   89.9405    8.5956 N.ar    1  UNL1       -0.2291
     19 C          60.9666   89.5029    9.7891 C.ar    1  UNL1        0.1018
     20 C          66.0046   92.6925   11.5963 C.ar    1  UNL1        0.0920
     21 C          67.4147   92.7772   12.1007 C.ar    1  UNL1        0.0204
     22 C          67.7952   92.0960   13.3818 C.ar    1  UNL1        0.0312
     23 C          66.7657   91.3300   14.1585 C.ar    1  UNL1        0.1454
     24 F          67.1462   90.6488   15.4395 F       1  UNL1       -0.2040
     25 C          65.3556   91.2453   13.6541 C.ar    1  UNL1        0.0951
     26 C          64.9751   91.9265   12.3730 C.ar    1  UNL1        0.1598
     27 F          63.5649   91.8417   11.8687 F       1  UNL1       -0.2026
     28 N          65.6241   93.3737   10.3152 N.pl3   1  UNL1       -0.2166
     29 H          64.8701   93.0330    9.7816 H       1  UNL1        0.1734
     30 S          66.3923   94.5740    9.8472 S.O2    1  UNL1        0.0540
     31 O          67.3042   93.6825    9.0575 O.2     1  UNL1       -0.1545
     32 O          65.4803   95.4655   10.6369 O.2     1  UNL1       -0.1545
     33 C          67.1604   95.7744    9.3792 C.3     1  UNL1        0.1724
     34 C          65.7171   96.8544    7.5082 C.3     1  UNL1        0.0019
     35 C          67.0135   96.2545    7.9657 C.3     1  UNL1        0.0273
@<TRIPOS>BOND
     1    34    35    1
     2    35    33    1
     3    33    30    1
     4    30    31    2
     5    30    32    2
     6    30    28    1
     7    28    20    1
     8    20    21   ar
     9    21    22   ar
    10    22    23   ar
    11    23    24    1
    12    23    25   ar
    13    25     1    1
    14     1     2    2
    15     1     3    1
    16     3     4   ar
    17     4     5   ar
    18     5     6   ar
    19     6     7   ar
    20     7     8   ar
    21     8     9   ar
    22     9    13    1
    23    13    14   ar
    24    14    15   ar
    25    15    16   ar
    26    16    17    1
    27    16    18   ar
    28    18    19   ar
    29     9    10   ar
    30    10    11   ar
    31    25    26   ar
    32    26    27    1
    33    26    20   ar
    34    11     3   ar
    35    11     6    1
    36    19    13   ar
    37    28    29    1
    38     7    12    1
@<TRIPOS>MOLECULE
*****
 35 38 0 0 0
SMALL
GASTEIGER

@<TRIPOS>ATOM
      1 C          61.8297   86.0077   11.6007 C.2     1  UNL1        0.2015
      2 O          61.2323   85.9991   12.9765 O.2     1  UNL1       -0.2864
      3 C          61.5815   87.1675   10.6825 C.ar    1  UNL1        0.0611
      4 C          60.7188   87.1518    9.4555 C.ar    1  UNL1        0.1037
      5 N          60.7566   88.5213    8.8447 N.ar    1  UNL1       -0.2269
      6 C          61.6427   89.3834    9.6942 C.ar    1  UNL1        0.1407
      7 N          62.0512   90.8222    9.5803 N.ar    1  UNL1       -0.3374
      8 C          62.9696   91.4242   10.6021 C.ar    1  UNL1        0.0735
      9 C          63.4794   90.5875   11.7379 C.ar    1  UNL1        0.0201
     10 C          63.0709   89.1488   11.8518 C.ar    1  UNL1        0.0047
     11 C          62.1525   88.5467   10.8300 C.ar    1  UNL1        0.0386
     12 H          61.7166   91.3713    8.8348 H       1  UNL1        0.1674
     13 C          64.3977   91.1897   12.7597 C.ar    1  UNL1        0.0398
     14 C          65.3101   92.3168   12.3765 C.ar    1  UNL1        0.1018
     15 N          66.2285   92.9190   13.3984 N.ar    1  UNL1       -0.2291
     16 C          66.2344   92.3939   14.8034 C.ar    1  UNL1        0.1396
     17 C          67.1527   92.9960   15.8253 C.3     1  UNL1        0.0737
     18 N          65.3219   91.2666   15.1866 N.ar    1  UNL1       -0.2291
     19 C          64.4036   90.6646   14.1648 C.ar    1  UNL1        0.1018
     20 C          63.8157   82.5718   11.6230 C.ar    1  UNL1        0.0920
     21 C          64.3664   82.5536   10.2278 C.ar    1  UNL1        0.0204
     22 C          64.0714   83.6868    9.2903 C.ar    1  UNL1        0.0312
     23 C          63.2259   84.8381    9.7479 C.ar    1  UNL1        0.1454
     24 F          62.9310   85.9713    8.8104 F       1  UNL1       -0.2040
     25 C          62.6753   84.8563   11.1430 C.ar    1  UNL1        0.0951
     26 C          62.9702   83.7231   12.0805 C.ar    1  UNL1        0.1598
     27 F          62.4195   83.7413   13.4757 F       1  UNL1       -0.2026
     28 N          64.1107   81.4386   12.5605 N.pl3   1  UNL1       -0.2166
     29 H          65.0420   81.1639   12.7231 H       1  UNL1        0.1734
     30 S          62.9866   80.7239   13.2503 S.O2    1  UNL1        0.0540
     31 O          62.5707   80.1166   11.9433 O.2     1  UNL1       -0.1545
     32 O          63.4025   81.3313   14.5572 O.2     1  UNL1       -0.1545
     33 C          61.8626   80.0093   13.9401 C.3     1  UNL1        0.1724
     34 C          59.2878   79.9365   14.2797 C.3     1  UNL1        0.0019
     35 C          60.5648   80.7185   14.1908 C.3     1  UNL1        0.0273
@<TRIPOS>BOND
     1    34    35    1
     2    35    33    1
     3    33    30    1
     4    30    31    2
     5    30    32    2
     6    30    28    1
     7    28    20    1
     8    20    21   ar
     9    21    22   ar
    10    22    23   ar
    11    23    24    1
    12    23    25   ar
    13    25     1    1
    14     1     2    2
    15     1     3    1
    16     3     4   ar
    17     4     5   ar
    18     5     6   ar
    19     6     7   ar
    20     7     8   ar
    21     8     9   ar
    22     9    13    1
    23    13    14   ar
    24    14    15   ar
    25    15    16   ar
    26    16    17    1
    27    16    18   ar
    28    18    19   ar
    29     9    10   ar
    30    10    11   ar
    31    25    26   ar
    32    26    27    1
    33    26    20   ar
    34    11     3   ar
    35    11     6    1
    36    19    13   ar
    37    28    29    1
    38     7    12    1
@<TRIPOS>MOLECULE
*****
 35 38 0 0 0
SMALL
GASTEIGER

@<TRIPOS>ATOM
      1 C          65.2651   90.9722   13.7764 C.2     1  UNL1        0.2015
      2 O          66.7634   91.0417   13.7820 O.2     1  UNL1       -0.2864
      3 C          64.5214   90.7150   15.0534 C.ar    1  UNL1        0.0611
      4 C          64.1073   91.7506   16.0565 C.ar    1  UNL1        0.1037
      5 N          63.3912   91.0526   17.1745 N.ar    1  UNL1       -0.2269
      6 C          63.3627   89.5857   16.8625 C.ar    1  UNL1        0.1407
      7 N          62.7909   88.4131   17.6027 N.ar    1  UNL1       -0.3374
      8 C          62.9176   87.0317   17.0319 C.ar    1  UNL1        0.0735
      9 C          63.6161   86.8230   15.7210 C.ar    1  UNL1        0.0201
     10 C          64.1879   87.9957   14.9808 C.ar    1  UNL1        0.0047
     11 C          64.0612   89.3770   15.5516 C.ar    1  UNL1        0.0386
     12 H          62.3324   88.5500   18.4631 H       1  UNL1        0.1674
     13 C          63.7429   85.4416   15.1503 C.ar    1  UNL1        0.0398
     14 C          62.8333   84.3475   15.6253 C.ar    1  UNL1        0.1018
     15 N          62.9601   82.9661   15.0546 N.ar    1  UNL1       -0.2291
     16 C          63.9964   82.6788   14.0088 C.ar    1  UNL1        0.1396
     17 C          64.1231   81.2975   13.4381 C.3     1  UNL1        0.0737
     18 N          64.9059   83.7730   13.5338 N.ar    1  UNL1       -0.2291
     19 C          64.7792   85.1544   14.1045 C.ar    1  UNL1        0.1018
     20 C          62.4663   90.6149   10.9855 C.ar    1  UNL1        0.0920
     21 C          63.0010   91.5351    9.9284 C.ar    1  UNL1        0.0204
     22 C          64.2904   92.2676   10.1540 C.ar    1  UNL1        0.0312
     23 C          65.0451   92.0800   11.4366 C.ar    1  UNL1        0.1454
     24 F          66.3345   92.8125   11.6622 F       1  UNL1       -0.2040
     25 C          64.5104   91.1598   12.4937 C.ar    1  UNL1        0.0951
     26 C          63.2210   90.4273   12.2681 C.ar    1  UNL1        0.1598
     27 F          62.6863   89.5071   13.3252 F       1  UNL1       -0.2026
     28 N          61.1769   89.8824   10.7599 N.pl3   1  UNL1       -0.2166
     29 H          60.3517   90.3850   10.5710 H       1  UNL1        0.1734
     30 S          61.1448   88.3840   10.8220 S.O2    1  UNL1        0.0540
     31 O          62.1955   88.3172    9.7536 O.2     1  UNL1       -0.1545
     32 O          60.0940   88.4509   11.8904 O.2     1  UNL1       -0.1545
     33 C          61.1126   86.8857   10.8842 C.3     1  UNL1        0.1724
     34 C          62.3502   84.6465   11.3365 C.3     1  UNL1        0.0019
     35 C          62.2598   86.1355   11.4935 C.3     1  UNL1        0.0273
@<TRIPOS>BOND
     1    34    35    1
     2    35    33    1
     3    33    30    1
     4    30    31    2
     5    30    32    2
     6    30    28    1
     7    28    20    1
     8    20    21   ar
     9    21    22   ar
    10    22    23   ar
    11    23    24    1
    12    23    25   ar
    13    25     1    1
    14     1     2    2
    15     1     3    1
    16     3     4   ar
    17     4     5   ar
    18     5     6   ar
    19     6     7   ar
    20     7     8   ar
    21     8     9   ar
    22     9    13    1
    23    13    14   ar
    24    14    15   ar
    25    15    16   ar
    26    16    17    1
    27    16    18   ar
    28    18    19   ar
    29     9    10   ar
    30    10    11   ar
    31    25    26   ar
    32    26    27    1
    33    26    20   ar
    34    11     3   ar
    35    11     6    1
    36    19    13   ar
    37    28    29    1
    38     7    12    1
@<TRIPOS>MOLECULE
*****
 35 38 0 0 0
SMALL
GASTEIGER

@<TRIPOS>ATOM
      1 C          63.8714   83.6699   12.4636 C.2     1  UNL1        0.2015
      2 O          64.8842   82.5826   12.2591 O.2     1  UNL1       -0.2864
      3 C          63.4818   84.0804   13.8527 C.ar    1  UNL1        0.0611
      4 C          62.9521   83.1740   14.9241 C.ar    1  UNL1        0.1037
      5 N          62.6964   84.0028   16.1478 N.ar    1  UNL1       -0.2269
      6 C          63.0681   85.4215   15.8328 C.ar    1  UNL1        0.1407
      7 N          63.0273   86.6758   16.6544 N.ar    1  UNL1       -0.3374
      8 C          63.4718   87.9781   16.0574 C.ar    1  UNL1        0.0735
      9 C          63.9572   88.0261   14.6389 C.ar    1  UNL1        0.0201
     10 C          63.9980   86.7717   13.8174 C.ar    1  UNL1        0.0047
     11 C          63.5535   85.4695   14.4143 C.ar    1  UNL1        0.0386
     12 H          62.7087   86.6444   17.5854 H       1  UNL1        0.1674
     13 C          64.4017   89.3284   14.0420 C.ar    1  UNL1        0.0398
     14 C          63.7654   89.8311   12.7801 C.ar    1  UNL1        0.1018
     15 N          64.2100   91.1334   12.1831 N.ar    1  UNL1       -0.2291
     16 C          65.2909   91.9331   12.8481 C.ar    1  UNL1        0.1396
     17 C          65.7354   93.2354   12.2512 C.3     1  UNL1        0.0737
     18 N          65.9272   91.4304   14.1101 N.ar    1  UNL1       -0.2291
     19 C          65.4826   90.1281   14.7070 C.ar    1  UNL1        0.1018
     20 C          61.4559   85.9440   10.2854 C.ar    1  UNL1        0.0920
     21 C          62.0016   85.7004    8.9096 C.ar    1  UNL1        0.0204
     22 C          63.1705   84.7801    8.7184 C.ar    1  UNL1        0.0312
     23 C          63.7938   84.1032    9.9030 C.ar    1  UNL1        0.1454
     24 F          64.9627   83.1829    9.7118 F       1  UNL1       -0.2040
     25 C          63.2481   84.3468   11.2789 C.ar    1  UNL1        0.0951
     26 C          62.0792   85.2671   11.4700 C.ar    1  UNL1        0.1598
     27 F          61.5336   85.5106   12.8459 F       1  UNL1       -0.2026
     28 N          60.2870   86.8643   10.4766 N.pl3   1  UNL1       -0.2166
     29 H          59.4110   86.4995   10.7391 H       1  UNL1        0.1734
     30 S          60.4527   88.3404   10.2678 S.O2    1  UNL1        0.0540
     31 O          59.7138   88.2392    8.9663 O.2     1  UNL1       -0.1545
     32 O          61.1915   88.4416   11.5693 O.2     1  UNL1       -0.1545
     33 C          60.6184   89.8165   10.0590 C.3     1  UNL1        0.1724
     34 C          58.8687   90.8154   11.6995 C.3     1  UNL1        0.0019
     35 C          60.2674   90.7737   11.1594 C.3     1  UNL1        0.0273
@<TRIPOS>BOND
     1    34    35    1
     2    35    33    1
     3    33    30    1
     4    30    31    2
     5    30    32    2
     6    30    28    1
     7    28    20    1
     8    20    21   ar
     9    21    22   ar
    10    22    23   ar
    11    23    24    1
    12    23    25   ar
    13    25     1    1
    14     1     2    2
    15     1     3    1
    16     3     4   ar
    17     4     5   ar
    18     5     6   ar
    19     6     7   ar
    20     7     8   ar
    21     8     9   ar
    22     9    13    1
    23    13    14   ar
    24    14    15   ar
    25    15    16   ar
    26    16    17    1
    27    16    18   ar
    28    18    19   ar
    29     9    10   ar
    30    10    11   ar
    31    25    26   ar
    32    26    27    1
    33    26    20   ar
    34    11     3   ar
    35    11     6    1
    36    19    13   ar
    37    28    29    1
    38     7    12    1
