@<TRIPOS>MOLECULE
*****
 30 32 0 0 0
SMALL
GASTEIGER

@<TRIPOS>ATOM
      1 O          60.0287   88.1269   11.6829 O.2     1  UNL1       -0.2732
      2 C          61.2730   88.8830   11.3222 C.2     1  UNL1        0.2430
      3 N          62.4592   88.1532   10.7653 N.am    1  UNL1       -0.2972
      4 H          63.2758   88.6494   10.5286 H       1  UNL1        0.1500
      5 C          61.3310   90.3690   11.5184 C.3     1  UNL1        0.1759
      6 N          62.6291   91.0275   11.8810 N.am    1  UNL1       -0.2931
      7 C          63.3081   90.6854   13.1740 C.2     1  UNL1        0.2462
      8 O          62.6892   89.6847   14.1043 O.2     1  UNL1       -0.2701
      9 H          63.0353   91.6843   11.2704 H       1  UNL1        0.1502
     10 C          64.6062   91.3439   13.5366 C.ar    1  UNL1        0.0535
     11 C          65.1719   91.1778   14.9158 C.ar    1  UNL1        0.0068
     12 C          66.4699   91.8363   15.2784 C.ar    1  UNL1        0.0298
     13 C          67.2022   92.6609   14.2617 C.ar    1  UNL1        0.1401
     14 F          68.5003   93.3195   14.6243 F       1  UNL1       -0.2042
     15 C          66.6366   92.8271   12.8825 C.ar    1  UNL1        0.0298
     16 C          65.3386   92.1686   12.5199 C.ar    1  UNL1        0.0068
     17 C          62.4012   86.6671   10.5691 C.3     1  UNL1        0.1169
     18 C          62.7466   85.7470   11.7023 C.ar    1  UNL1       -0.0003
     19 C          63.3946   86.2923   12.9404 C.ar    1  UNL1       -0.0015
     20 C          63.7400   85.3722   14.0735 C.ar    1  UNL1        0.0111
     21 C          63.4374   83.9067   13.9686 C.ar    1  UNL1        0.0577
     22 CL         63.7827   82.9866   15.1018 Cl      1  UNL1       -0.0822
     23 C          62.7894   83.3615   12.7306 C.ar    1  UNL1        0.0111
     24 C          62.4440   84.2816   11.5974 C.ar    1  UNL1       -0.0015
     25 C          61.9978   86.1013    9.2398 C.ar    1  UNL1       -0.0003
     26 C          63.0053   85.3790    8.3953 C.ar    1  UNL1       -0.0024
     27 C          62.6019   84.8131    7.0659 C.ar    1  UNL1       -0.0003
     28 C          61.1911   84.9696    6.5811 C.ar    1  UNL1       -0.0000
     29 C          60.1836   85.6920    7.4257 C.ar    1  UNL1       -0.0003
     30 C          60.5869   86.2578    8.7550 C.ar    1  UNL1       -0.0024
@<TRIPOS>BOND
     1     1     2    2
     2     2     5    1
     3     5     6    1
     4     6     7   am
     5     7     8    2
     6     7    10    1
     7    10    11   ar
     8    11    12   ar
     9    12    13   ar
    10    13    14    1
    11    13    15   ar
    12    15    16   ar
    13     2     3   am
    14     3    17    1
    15    17    25    1
    16    25    26   ar
    17    26    27   ar
    18    27    28   ar
    19    28    29   ar
    20    29    30   ar
    21    17    18    1
    22    18    19   ar
    23    19    20   ar
    24    20    21   ar
    25    21    22    1
    26    21    23   ar
    27    23    24   ar
    28    16    10   ar
    29    30    25   ar
    30    24    18   ar
    31     6     9    1
    32     3     4    1
@<TRIPOS>MOLECULE
*****
 30 32 0 0 0
SMALL
GASTEIGER

@<TRIPOS>ATOM
      1 O          62.5139   89.7254   16.0581 O.2     1  UNL1       -0.2732
      2 C          63.4450   88.5660   15.8612 C.2     1  UNL1        0.2430
      3 N          64.5628   88.6624   14.8657 N.am    1  UNL1       -0.2972
      4 H          65.1739   87.9015   14.7365 H       1  UNL1        0.1500
      5 C          63.2582   87.3101   16.6598 C.3     1  UNL1        0.1759
      6 N          62.9051   86.0268   15.9679 N.am    1  UNL1       -0.2931
      7 C          63.9362   85.3075   15.1498 C.2     1  UNL1        0.2462
      8 O          65.3204   85.8714   15.0234 O.2     1  UNL1       -0.2701
      9 H          61.9966   85.6567   16.0508 H       1  UNL1        0.1502
     10 C          63.5831   84.0243   14.4579 C.ar    1  UNL1        0.0535
     11 C          64.3742   83.5722   13.2664 C.ar    1  UNL1        0.0068
     12 C          64.0211   82.2890   12.5746 C.ar    1  UNL1        0.0298
     13 C          62.8768   81.4579   13.0743 C.ar    1  UNL1        0.1401
     14 F          62.5236   80.1746   12.3824 F       1  UNL1       -0.2042
     15 C          62.0856   81.9099   14.2657 C.ar    1  UNL1        0.0298
     16 C          62.4387   83.1931   14.9576 C.ar    1  UNL1        0.0068
     17 C          64.7496   89.9184   14.0670 C.3     1  UNL1        0.1169
     18 C          65.6884   90.9830   14.5521 C.ar    1  UNL1       -0.0003
     19 C          65.3027   91.8507   15.7134 C.ar    1  UNL1       -0.0015
     20 C          66.2415   92.9153   16.1984 C.ar    1  UNL1        0.0111
     21 C          67.5660   93.1122   15.5223 C.ar    1  UNL1        0.0577
     22 CL         68.5048   94.1768   16.0073 Cl      1  UNL1       -0.0822
     23 C          67.9516   92.2445   14.3611 C.ar    1  UNL1        0.0111
     24 C          67.0128   91.1799   13.8760 C.ar    1  UNL1       -0.0015
     25 C          63.9976   90.1097   12.7833 C.ar    1  UNL1       -0.0003
     26 C          63.0750   89.0360   12.2875 C.ar    1  UNL1       -0.0024
     27 C          62.3230   89.2272   11.0038 C.ar    1  UNL1       -0.0003
     28 C          62.4936   90.4922   10.2159 C.ar    1  UNL1       -0.0000
     29 C          63.4162   91.5659   10.7118 C.ar    1  UNL1       -0.0003
     30 C          64.1682   91.3747   11.9955 C.ar    1  UNL1       -0.0024
@<TRIPOS>BOND
     1     1     2    2
     2     2     5    1
     3     5     6    1
     4     6     7   am
     5     7     8    2
     6     7    10    1
     7    10    11   ar
     8    11    12   ar
     9    12    13   ar
    10    13    14    1
    11    13    15   ar
    12    15    16   ar
    13     2     3   am
    14     3    17    1
    15    17    25    1
    16    25    26   ar
    17    26    27   ar
    18    27    28   ar
    19    28    29   ar
    20    29    30   ar
    21    17    18    1
    22    18    19   ar
    23    19    20   ar
    24    20    21   ar
    25    21    22    1
    26    21    23   ar
    27    23    24   ar
    28    16    10   ar
    29    30    25   ar
    30    24    18   ar
    31     6     9    1
    32     3     4    1
@<TRIPOS>MOLECULE
*****
 30 32 0 0 0
SMALL
GASTEIGER

@<TRIPOS>ATOM
      1 O          62.7161   88.2078   16.4895 O.2     1  UNL1       -0.2732
      2 C          63.7041   87.2877   15.8358 C.2     1  UNL1        0.2430
      3 N          64.4451   87.7319   14.6096 N.am    1  UNL1       -0.2972
      4 H          65.0935   87.1280   14.1806 H       1  UNL1        0.1500
      5 C          63.9510   85.9234   16.4082 C.3     1  UNL1        0.1759
      6 N          63.9651   84.7236   15.5080 N.am    1  UNL1       -0.2931
      7 C          62.6782   84.1821   14.9597 C.2     1  UNL1        0.2462
      8 O          61.3771   84.8404   15.3117 O.2     1  UNL1       -0.2701
      9 H          64.8190   84.2915   15.2769 H       1  UNL1        0.1502
     10 C          62.6923   82.9823   14.0595 C.ar    1  UNL1        0.0535
     11 C          61.9546   81.7381   14.4565 C.ar    1  UNL1        0.0068
     12 C          61.9687   80.5384   13.5562 C.ar    1  UNL1        0.0298
     13 C          62.7206   80.5829   12.2590 C.ar    1  UNL1        0.1401
     14 F          62.7347   79.3831   11.3588 F       1  UNL1       -0.2042
     15 C          63.4583   81.8271   11.8620 C.ar    1  UNL1        0.0298
     16 C          63.4441   83.0269   12.7623 C.ar    1  UNL1        0.0068
     17 C          64.1982   89.0962   14.0371 C.3     1  UNL1        0.1169
     18 C          63.3766   89.2495   12.7915 C.ar    1  UNL1       -0.0003
     19 C          62.8652   88.0342   12.0762 C.ar    1  UNL1       -0.0015
     20 C          62.0435   88.1874   10.8307 C.ar    1  UNL1        0.0111
     21 C          61.7334   89.5559   10.3004 C.ar    1  UNL1        0.0577
     22 CL         60.9118   89.7092    9.0548 Cl      1  UNL1       -0.0822
     23 C          62.2449   90.7711   11.0157 C.ar    1  UNL1        0.0111
     24 C          63.0665   90.6179   12.2613 C.ar    1  UNL1       -0.0015
     25 C          64.7730   90.3072   14.7102 C.ar    1  UNL1       -0.0003
     26 C          64.0174   90.9787   15.8184 C.ar    1  UNL1       -0.0024
     27 C          64.5922   92.1898   16.4916 C.ar    1  UNL1       -0.0003
     28 C          65.9224   92.7293   16.0564 C.ar    1  UNL1       -0.0000
     29 C          66.6779   92.0578   14.9481 C.ar    1  UNL1       -0.0003
     30 C          66.1032   90.8467   14.2751 C.ar    1  UNL1       -0.0024
@<TRIPOS>BOND
     1     1     2    2
     2     2     5    1
     3     5     6    1
     4     6     7   am
     5     7     8    2
     6     7    10    1
     7    10    11   ar
     8    11    12   ar
     9    12    13   ar
    10    13    14    1
    11    13    15   ar
    12    15    16   ar
    13     2     3   am
    14     3    17    1
    15    17    25    1
    16    25    26   ar
    17    26    27   ar
    18    27    28   ar
    19    28    29   ar
    20    29    30   ar
    21    17    18    1
    22    18    19   ar
    23    19    20   ar
    24    20    21   ar
    25    21    22    1
    26    21    23   ar
    27    23    24   ar
    28    16    10   ar
    29    30    25   ar
    30    24    18   ar
    31     6     9    1
    32     3     4    1
@<TRIPOS>MOLECULE
*****
 30 32 0 0 0
SMALL
GASTEIGER

@<TRIPOS>ATOM
      1 O          63.1423   88.8020   15.8004 O.2     1  UNL1       -0.2732
      2 C          63.7308   87.7003   14.9698 C.2     1  UNL1        0.2430
      3 N          63.9616   87.9088   13.5025 N.am    1  UNL1       -0.2972
      4 H          64.3478   87.1857   12.9573 H       1  UNL1        0.1500
      5 C          64.0884   86.3901   15.6066 C.3     1  UNL1        0.1759
      6 N          64.0543   85.1283   14.7962 N.am    1  UNL1       -0.2931
      7 C          62.7802   84.3451   14.6812 C.2     1  UNL1        0.2462
      8 O          61.5403   84.8236   15.3765 O.2     1  UNL1       -0.2701
      9 H          64.8681   84.8142   14.3398 H       1  UNL1        0.1502
     10 C          62.7461   83.0832   13.8708 C.ar    1  UNL1        0.0535
     11 C          63.4013   83.0400   12.5222 C.ar    1  UNL1        0.0068
     12 C          63.3671   81.7782   11.7119 C.ar    1  UNL1        0.0298
     13 C          62.6777   80.5596   12.2502 C.ar    1  UNL1        0.1401
     14 F          62.6436   79.2977   11.4399 F       1  UNL1       -0.2042
     15 C          62.0226   80.6028   13.5989 C.ar    1  UNL1        0.0298
     16 C          62.0567   81.8646   14.4091 C.ar    1  UNL1        0.0068
     17 C          63.6039   89.2190   12.8656 C.3     1  UNL1        0.1169
     18 C          64.4230   90.4419   13.1550 C.ar    1  UNL1       -0.0003
     19 C          64.5165   91.5400   12.1374 C.ar    1  UNL1       -0.0015
     20 C          65.3355   92.7629   12.4268 C.ar    1  UNL1        0.0111
     21 C          66.0610   92.8876   13.7338 C.ar    1  UNL1        0.0577
     22 CL         66.8800   94.1105   14.0232 Cl      1  UNL1       -0.0822
     23 C          65.9674   91.7895   14.7514 C.ar    1  UNL1        0.0111
     24 C          65.1484   90.5667   14.4620 C.ar    1  UNL1       -0.0015
     25 C          62.4273   89.3063   11.9394 C.ar    1  UNL1       -0.0003
     26 C          62.4975   88.6830   10.5769 C.ar    1  UNL1       -0.0024
     27 C          61.3208   88.7703    9.6506 C.ar    1  UNL1       -0.0003
     28 C          60.0740   89.4808   10.0870 C.ar    1  UNL1       -0.0000
     29 C          60.0038   90.1041   11.4497 C.ar    1  UNL1       -0.0003
     30 C          61.1804   90.0168   12.3758 C.ar    1  UNL1       -0.0024
@<TRIPOS>BOND
     1     1     2    2
     2     2     5    1
     3     5     6    1
     4     6     7   am
     5     7     8    2
     6     7    10    1
     7    10    11   ar
     8    11    12   ar
     9    12    13   ar
    10    13    14    1
    11    13    15   ar
    12    15    16   ar
    13     2     3   am
    14     3    17    1
    15    17    25    1
    16    25    26   ar
    17    26    27   ar
    18    27    28   ar
    19    28    29   ar
    20    29    30   ar
    21    17    18    1
    22    18    19   ar
    23    19    20   ar
    24    20    21   ar
    25    21    22    1
    26    21    23   ar
    27    23    24   ar
    28    16    10   ar
    29    30    25   ar
    30    24    18   ar
    31     6     9    1
    32     3     4    1
@<TRIPOS>MOLECULE
*****
 30 32 0 0 0
SMALL
GASTEIGER

@<TRIPOS>ATOM
      1 O          63.5211   88.0429   12.4701 O.2     1  UNL1       -0.2732
      2 C          62.8347   89.3723   12.3615 C.2     1  UNL1        0.2430
      3 N          63.0611   90.4210   13.4097 N.am    1  UNL1       -0.2972
      4 H          62.6106   91.2935   13.3384 H       1  UNL1        0.1500
      5 C          61.9221   89.6528   11.2047 C.3     1  UNL1        0.1759
      6 N          61.9412   88.7589   10.0002 N.am    1  UNL1       -0.2931
      7 C          61.4285   87.3529   10.1015 C.2     1  UNL1        0.2462
      8 O          60.8965   86.8408   11.4072 O.2     1  UNL1       -0.2701
      9 H          62.2903   89.0949    9.1433 H       1  UNL1        0.1502
     10 C          61.4476   86.4589    8.8971 C.ar    1  UNL1        0.0535
     11 C          60.2067   86.2847    8.0726 C.ar    1  UNL1        0.0068
     12 C          60.2259   85.3908    6.8683 C.ar    1  UNL1        0.0298
     13 C          61.4860   84.6711    6.4884 C.ar    1  UNL1        0.1401
     14 F          61.5051   83.7772    5.2840 F       1  UNL1       -0.2042
     15 C          62.7268   84.8453    7.3129 C.ar    1  UNL1        0.0298
     16 C          62.7076   85.7392    8.5173 C.ar    1  UNL1        0.0068
     17 C          63.9738   90.1405   14.5666 C.3     1  UNL1        0.1169
     18 C          65.0974   91.0831   14.8811 C.ar    1  UNL1       -0.0003
     19 C          66.2302   91.2497   13.9119 C.ar    1  UNL1       -0.0015
     20 C          67.3538   92.1923   14.2264 C.ar    1  UNL1        0.0111
     21 C          67.3447   92.9683   15.5100 C.ar    1  UNL1        0.0577
     22 CL         68.4684   93.9109   15.8245 Cl      1  UNL1       -0.0822
     23 C          66.2121   92.8017   16.4792 C.ar    1  UNL1        0.0111
     24 C          65.0884   91.8591   16.1647 C.ar    1  UNL1       -0.0015
     25 C          63.7628   88.9174   15.4089 C.ar    1  UNL1       -0.0003
     26 C          62.9858   89.0129   16.6884 C.ar    1  UNL1       -0.0024
     27 C          62.7748   87.7898   17.5308 C.ar    1  UNL1       -0.0003
     28 C          63.3409   86.4713   17.0937 C.ar    1  UNL1       -0.0000
     29 C          64.1179   86.3759   15.8141 C.ar    1  UNL1       -0.0003
     30 C          64.3289   87.5989   14.9718 C.ar    1  UNL1       -0.0024
@<TRIPOS>BOND
     1     1     2    2
     2     2     5    1
     3     5     6    1
     4     6     7   am
     5     7     8    2
     6     7    10    1
     7    10    11   ar
     8    11    12   ar
     9    12    13   ar
    10    13    14    1
    11    13    15   ar
    12    15    16   ar
    13     2     3   am
    14     3    17    1
    15    17    25    1
    16    25    26   ar
    17    26    27   ar
    18    27    28   ar
    19    28    29   ar
    20    29    30   ar
    21    17    18    1
    22    18    19   ar
    23    19    20   ar
    24    20    21   ar
    25    21    22    1
    26    21    23   ar
    27    23    24   ar
    28    16    10   ar
    29    30    25   ar
    30    24    18   ar
    31     6     9    1
    32     3     4    1
@<TRIPOS>MOLECULE
*****
 30 32 0 0 0
SMALL
GASTEIGER

@<TRIPOS>ATOM
      1 O          62.7941   88.4709    9.6656 O.2     1  UNL1       -0.2732
      2 C          62.0218   88.5506   10.9490 C.2     1  UNL1        0.2430
      3 N          61.6978   87.2984   11.7084 N.am    1  UNL1       -0.2972
      4 H          61.1909   87.3507   12.5508 H       1  UNL1        0.1500
      5 C          61.5733   89.8827   11.4729 C.3     1  UNL1        0.1759
      6 N          62.5769   90.8411   12.0425 N.am    1  UNL1       -0.2931
      7 C          63.6288   90.3492   12.9920 C.2     1  UNL1        0.2462
      8 O          63.6771   88.8989   13.3719 O.2     1  UNL1       -0.2701
      9 H          62.5452   91.7929   11.7932 H       1  UNL1        0.1502
     10 C          64.6323   91.3076   13.5616 C.ar    1  UNL1        0.0535
     11 C          64.9461   91.2813   15.0282 C.ar    1  UNL1        0.0068
     12 C          65.9496   92.2397   15.5977 C.ar    1  UNL1        0.0298
     13 C          66.6394   93.2243   14.7007 C.ar    1  UNL1        0.1401
     14 F          67.6430   94.1827   15.2703 F       1  UNL1       -0.2042
     15 C          66.3257   93.2506   13.2341 C.ar    1  UNL1        0.0298
     16 C          65.3221   92.2922   12.6646 C.ar    1  UNL1        0.0068
     17 C          62.1462   85.9662   11.1845 C.3     1  UNL1        0.1169
     18 C          61.9963   85.6444    9.7272 C.ar    1  UNL1       -0.0003
     19 C          63.1328   85.0149    8.9773 C.ar    1  UNL1       -0.0015
     20 C          62.9828   84.6931    7.5199 C.ar    1  UNL1        0.0111
     21 C          61.6964   85.0007    6.8124 C.ar    1  UNL1        0.0577
     22 CL         61.5464   84.6789    5.3550 Cl      1  UNL1       -0.0822
     23 C          60.5600   85.6302    7.5623 C.ar    1  UNL1        0.0111
     24 C          60.7099   85.9520    9.0197 C.ar    1  UNL1       -0.0015
     25 C          62.7446   84.9560   12.1180 C.ar    1  UNL1       -0.0003
     26 C          62.5202   83.4918   11.8823 C.ar    1  UNL1       -0.0024
     27 C          63.1186   82.4815   12.8157 C.ar    1  UNL1       -0.0003
     28 C          63.9413   82.9355   13.9849 C.ar    1  UNL1       -0.0000
     29 C          64.1656   84.3998   14.2206 C.ar    1  UNL1       -0.0003
     30 C          63.5673   85.4100   13.2872 C.ar    1  UNL1       -0.0024
@<TRIPOS>BOND
     1     1     2    2
     2     2     5    1
     3     5     6    1
     4     6     7   am
     5     7     8    2
     6     7    10    1
     7    10    11   ar
     8    11    12   ar
     9    12    13   ar
    10    13    14    1
    11    13    15   ar
    12    15    16   ar
    13     2     3   am
    14     3    17    1
    15    17    25    1
    16    25    26   ar
    17    26    27   ar
    18    27    28   ar
    19    28    29   ar
    20    29    30   ar
    21    17    18    1
    22    18    19   ar
    23    19    20   ar
    24    20    21   ar
    25    21    22    1
    26    21    23   ar
    27    23    24   ar
    28    16    10   ar
    29    30    25   ar
    30    24    18   ar
    31     6     9    1
    32     3     4    1
@<TRIPOS>MOLECULE
*****
 30 32 0 0 0
SMALL
GASTEIGER

@<TRIPOS>ATOM
      1 O          65.0016   92.6799   12.6722 O.2     1  UNL1       -0.2732
      2 C          64.1821   91.5824   12.0608 C.2     1  UNL1        0.2430
      3 N          63.9762   90.2965   12.8051 N.am    1  UNL1       -0.2972
      4 H          63.4383   89.5762   12.4037 H       1  UNL1        0.1500
      5 C          63.5684   91.7709   10.7052 C.3     1  UNL1        0.1759
      6 N          63.0795   90.5824    9.9314 N.am    1  UNL1       -0.2931
      7 C          61.7822   89.9275   10.3030 C.2     1  UNL1        0.2462
      8 O          60.9738   90.4610   11.4483 O.2     1  UNL1       -0.2701
      9 H          63.6101   90.2322    9.1797 H       1  UNL1        0.1502
     10 C          61.2933   88.7391    9.5292 C.ar    1  UNL1        0.0535
     11 C          61.9923   87.4185    9.6618 C.ar    1  UNL1        0.0068
     12 C          61.5034   86.2302    8.8881 C.ar    1  UNL1        0.0298
     13 C          60.3156   86.3623    7.9817 C.ar    1  UNL1        0.1401
     14 F          59.8267   85.1739    7.2079 F       1  UNL1       -0.2042
     15 C          59.6166   87.6829    7.8491 C.ar    1  UNL1        0.0298
     16 C          60.1055   88.8712    8.6228 C.ar    1  UNL1        0.0068
     17 C          64.5899   90.1080   14.1608 C.3     1  UNL1        0.1169
     18 C          65.6500   91.0537   14.6422 C.ar    1  UNL1       -0.0003
     19 C          65.3516   92.0087   15.7599 C.ar    1  UNL1       -0.0015
     20 C          66.4117   92.9545   16.2414 C.ar    1  UNL1        0.0111
     21 C          67.7701   92.9453   15.6052 C.ar    1  UNL1        0.0577
     22 CL         68.8302   93.8910   16.0866 Cl      1  UNL1       -0.0822
     23 C          68.0684   91.9904   14.4875 C.ar    1  UNL1        0.0111
     24 C          67.0083   91.0446   14.0061 C.ar    1  UNL1       -0.0015
     25 C          64.1435   88.9738   15.0350 C.ar    1  UNL1       -0.0003
     26 C          64.4874   87.5614   14.6650 C.ar    1  UNL1       -0.0024
     27 C          64.0411   86.4271   15.5392 C.ar    1  UNL1       -0.0003
     28 C          63.2507   86.7053   16.7834 C.ar    1  UNL1       -0.0000
     29 C          62.9068   88.1177   17.1534 C.ar    1  UNL1       -0.0003
     30 C          63.3532   89.2519   16.2792 C.ar    1  UNL1       -0.0024
@<TRIPOS>BOND
     1     1     2    2
     2     2     5    1
     3     5     6    1
     4     6     7   am
     5     7     8    2
     6     7    10    1
     7    10    11   ar
     8    11    12   ar
     9    12    13   ar
    10    13    14    1
    11    13    15   ar
    12    15    16   ar
    13     2     3   am
    14     3    17    1
    15    17    25    1
    16    25    26   ar
    17    26    27   ar
    18    27    28   ar
    19    28    29   ar
    20    29    30   ar
    21    17    18    1
    22    18    19   ar
    23    19    20   ar
    24    20    21   ar
    25    21    22    1
    26    21    23   ar
    27    23    24   ar
    28    16    10   ar
    29    30    25   ar
    30    24    18   ar
    31     6     9    1
    32     3     4    1
@<TRIPOS>MOLECULE
*****
 30 32 0 0 0
SMALL
GASTEIGER

@<TRIPOS>ATOM
      1 O          65.2642   90.3677   14.0576 O.2     1  UNL1       -0.2732
      2 C          64.2384   90.8566   13.0785 C.2     1  UNL1        0.2430
      3 N          64.5074   92.0853   12.2612 N.am    1  UNL1       -0.2972
      4 H          63.8341   92.4062   11.6186 H       1  UNL1        0.1500
      5 C          62.9436   90.1169   12.9167 C.3     1  UNL1        0.1759
      6 N          62.7747   89.1374   11.7932 N.am    1  UNL1       -0.2931
      7 C          61.4110   88.8732   11.2272 C.2     1  UNL1        0.2462
      8 O          60.2161   89.5884   11.7846 O.2     1  UNL1       -0.2701
      9 H          63.5590   88.6680   11.4273 H       1  UNL1        0.1502
     10 C          61.2421   87.8937   10.1037 C.ar    1  UNL1        0.0535
     11 C          59.9620   87.8617    9.3226 C.ar    1  UNL1        0.0068
     12 C          59.7931   86.8823    8.1992 C.ar    1  UNL1        0.0298
     13 C          60.9045   85.9349    7.8568 C.ar    1  UNL1        0.1401
     14 F          60.7356   84.9554    6.7333 F       1  UNL1       -0.2042
     15 C          62.1847   85.9668    8.6378 C.ar    1  UNL1        0.0298
     16 C          62.3535   86.9463    9.7613 C.ar    1  UNL1        0.0068
     17 C          65.8023   92.8251   12.4231 C.3     1  UNL1        0.1169
     18 C          66.2718   93.7592   11.3475 C.ar    1  UNL1       -0.0003
     19 C          66.9121   93.2123   10.1060 C.ar    1  UNL1       -0.0015
     20 C          67.3816   94.1464    9.0304 C.ar    1  UNL1        0.0111
     21 C          67.2108   95.6275    9.1962 C.ar    1  UNL1        0.0577
     22 CL         67.6804   96.5616    8.1206 Cl      1  UNL1       -0.0822
     23 C          66.5706   96.1743   10.4376 C.ar    1  UNL1        0.0111
     24 C          66.1011   95.2402   11.5132 C.ar    1  UNL1       -0.0015
     25 C          66.6276   92.6307   13.6604 C.ar    1  UNL1       -0.0003
     26 C          66.1145   93.1079   14.9867 C.ar    1  UNL1       -0.0024
     27 C          66.9398   92.9136   16.2241 C.ar    1  UNL1       -0.0003
     28 C          68.2781   92.2420   16.1352 C.ar    1  UNL1       -0.0000
     29 C          68.7911   91.7647   14.8089 C.ar    1  UNL1       -0.0003
     30 C          67.9659   91.9591   13.5715 C.ar    1  UNL1       -0.0024
@<TRIPOS>BOND
     1     1     2    2
     2     2     5    1
     3     5     6    1
     4     6     7   am
     5     7     8    2
     6     7    10    1
     7    10    11   ar
     8    11    12   ar
     9    12    13   ar
    10    13    14    1
    11    13    15   ar
    12    15    16   ar
    13     2     3   am
    14     3    17    1
    15    17    25    1
    16    25    26   ar
    17    26    27   ar
    18    27    28   ar
    19    28    29   ar
    20    29    30   ar
    21    17    18    1
    22    18    19   ar
    23    19    20   ar
    24    20    21   ar
    25    21    22    1
    26    21    23   ar
    27    23    24   ar
    28    16    10   ar
    29    30    25   ar
    30    24    18   ar
    31     6     9    1
    32     3     4    1
@<TRIPOS>MOLECULE
*****
 30 32 0 0 0
SMALL
GASTEIGER

@<TRIPOS>ATOM
      1 O          62.6027   89.2624   16.3462 O.2     1  UNL1       -0.2732
      2 C          63.5414   88.1510   15.9811 C.2     1  UNL1        0.2430
      3 N          64.5430   88.3459   14.8817 N.am    1  UNL1       -0.2972
      4 H          65.1592   87.6164   14.6420 H       1  UNL1        0.1500
      5 C          63.4786   86.8445   16.7154 C.3     1  UNL1        0.1759
      6 N          63.0765   85.5948   15.9897 N.am    1  UNL1       -0.2931
      7 C          64.0380   84.9318   15.0485 C.2     1  UNL1        0.2462
      8 O          65.4016   85.5184   14.8330 O.2     1  UNL1       -0.2701
      9 H          62.1815   85.2098   16.1311 H       1  UNL1        0.1502
     10 C          63.6359   83.6821   14.3228 C.ar    1  UNL1        0.0535
     11 C          62.5831   82.7843   14.9019 C.ar    1  UNL1        0.0068
     12 C          62.1810   81.5346   14.1762 C.ar    1  UNL1        0.0298
     13 C          62.8318   81.1828   12.8713 C.ar    1  UNL1        0.1401
     14 F          62.4297   79.9331   12.1456 F       1  UNL1       -0.2042
     15 C          63.8846   82.0806   12.2922 C.ar    1  UNL1        0.0298
     16 C          64.2866   83.3302   13.0179 C.ar    1  UNL1        0.0068
     17 C          64.6059   89.6524   14.1473 C.3     1  UNL1        0.1169
     18 C          63.8467   89.8297   12.8658 C.ar    1  UNL1       -0.0003
     19 C          63.9412   91.1224   12.1108 C.ar    1  UNL1       -0.0015
     20 C          63.1820   91.2997   10.8293 C.ar    1  UNL1        0.0111
     21 C          62.3283   90.1843   10.3028 C.ar    1  UNL1        0.0577
     22 CL         61.5691   90.3616    9.0213 Cl      1  UNL1       -0.0822
     23 C          62.2339   88.8916   11.0578 C.ar    1  UNL1        0.0111
     24 C          62.9930   88.7143   12.3393 C.ar    1  UNL1       -0.0015
     25 C          65.4278   90.7815   14.6944 C.ar    1  UNL1       -0.0003
     26 C          66.7827   91.0702   14.1192 C.ar    1  UNL1       -0.0024
     27 C          67.6048   92.1994   14.6663 C.ar    1  UNL1       -0.0003
     28 C          67.0719   93.0398   15.7887 C.ar    1  UNL1       -0.0000
     29 C          65.7170   92.7510   16.3639 C.ar    1  UNL1       -0.0003
     30 C          64.8950   91.6219   15.8168 C.ar    1  UNL1       -0.0024
@<TRIPOS>BOND
     1     1     2    2
     2     2     5    1
     3     5     6    1
     4     6     7   am
     5     7     8    2
     6     7    10    1
     7    10    11   ar
     8    11    12   ar
     9    12    13   ar
    10    13    14    1
    11    13    15   ar
    12    15    16   ar
    13     2     3   am
    14     3    17    1
    15    17    25    1
    16    25    26   ar
    17    26    27   ar
    18    27    28   ar
    19    28    29   ar
    20    29    30   ar
    21    17    18    1
    22    18    19   ar
    23    19    20   ar
    24    20    21   ar
    25    21    22    1
    26    21    23   ar
    27    23    24   ar
    28    16    10   ar
    29    30    25   ar
    30    24    18   ar
    31     6     9    1
    32     3     4    1
