@<TRIPOS>MOLECULE
*****
 22 25 0 0 0
SMALL
GASTEIGER

@<TRIPOS>ATOM
      1 O          60.3878   88.5002   11.8853 O.2     1  UNL1       -0.2448
      2 C          61.6931   88.4873   11.1464 C.2     1  UNL1        0.3428
      3 C          62.5798   89.6970   11.1692 C.2     1  UNL1        0.0958
      4 C          62.6976   90.7243   10.0826 C.2     1  UNL1        0.1049
      5 N          63.6951   91.7539   10.5244 N.2     1  UNL1       -0.2476
      6 C          64.1937   91.3628   11.8840 C.2     1  UNL1        0.0641
      7 C          65.1863   92.0000   12.8106 C.3     1  UNL1        0.0788
      8 C          65.4896   91.3660   14.1357 C.2     1  UNL1        0.0183
      9 BR         66.4823   92.0032   15.0624 Br      1  UNL1       -0.0533
     10 C          64.8004   90.0947   14.5342 C.2     1  UNL1        0.0028
     11 C          63.8078   89.4575   13.6076 C.2     1  UNL1        0.0016
     12 C          63.5044   90.0915   12.2825 C.2     1  UNL1        0.0217
     13 O          62.1117   87.2647   10.3848 O.3     1  UNL1       -0.4454
     14 C          61.6505   85.9088   10.8306 C.3     1  UNL1        0.2087
     15 C          62.6495   84.8122   11.0522 C.3     1  UNL1        0.0445
     16 C          63.2753   84.1191    9.8783 C.3     1  UNL1        0.0210
     17 C          64.2743   83.0224   10.1000 C.3     1  UNL1        0.0722
     18 N          64.6478   82.6188   11.4956 N.3     1  UNL1       -0.2727
     19 C          64.0221   83.3119   12.6695 C.3     1  UNL1        0.0722
     20 C          63.0229   84.4086   12.4478 C.3     1  UNL1        0.0210
     21 C          64.0955   83.2253   11.4240 C.3     1  UNL1        0.0722
     22 C          63.1921   84.2169   11.2236 C.3     1  UNL1        0.0210
@<TRIPOS>BOND
     1     1     2    2
     2     2    13    1
     3    13    14    1
     4    14    15    1
     5    15    16    1
     6    16    17    1
     7    17    18    1
     8    18    19    1
     9    19    20    1
    10    18    21    1
    11    21    22    1
    12     2     3    1
    13     3     4    2
    14     4     5    1
    15     5     6    2
    16     6     7    1
    17     7     8    1
    18     8     9    1
    19     8    10    2
    20    10    11    1
    21    11    12    2
    22    20    15    1
    23    12     3    1
    24    22    15    1
    25    12     6    1
@<TRIPOS>MOLECULE
*****
 22 25 0 0 0
SMALL
GASTEIGER

@<TRIPOS>ATOM
      1 O          61.7411   89.7400   12.7495 O.2     1  UNL1       -0.2448
      2 C          62.6936   89.9009   11.6021 C.2     1  UNL1        0.3428
      3 C          63.7071   91.0066   11.6179 C.2     1  UNL1        0.0958
      4 C          64.0315   91.9218   10.4745 C.2     1  UNL1        0.1049
      5 N          65.0990   92.8720   10.9299 N.2     1  UNL1       -0.2476
      6 C          65.4345   92.5441   12.3547 C.2     1  UNL1        0.0641
      7 C          66.4121   93.1464   13.3198 C.3     1  UNL1        0.0788
      8 C          66.5294   92.5958   14.7101 C.2     1  UNL1        0.0183
      9 BR         67.5070   93.1981   15.6753 Br      1  UNL1       -0.0533
     10 C          65.6691   91.4430   15.1353 C.2     1  UNL1        0.0028
     11 C          64.6915   90.8407   14.1702 C.2     1  UNL1        0.0016
     12 C          64.5742   91.3912   12.7799 C.2     1  UNL1        0.0217
     13 O          62.6326   88.9560   10.4386 O.3     1  UNL1       -0.4454
     14 C          61.9964   87.6073   10.6004 C.3     1  UNL1        0.2087
     15 C          61.3481   86.9381    9.4249 C.3     1  UNL1        0.0445
     16 C          62.1250   85.9572    8.5977 C.3     1  UNL1        0.0210
     17 C          61.4767   85.2880    7.4222 C.3     1  UNL1        0.0722
     18 N          60.0514   85.5997    7.0738 N.3     1  UNL1       -0.2727
     19 C          59.2744   86.5806    7.9009 C.3     1  UNL1        0.0722
     20 C          59.9228   87.2498    9.0765 C.3     1  UNL1        0.0210
     21 C          60.3639   85.9914    7.7272 C.3     1  UNL1        0.0722
     22 C          60.9501   86.5966    8.7901 C.3     1  UNL1        0.0210
@<TRIPOS>BOND
     1     1     2    2
     2     2    13    1
     3    13    14    1
     4    14    15    1
     5    15    16    1
     6    16    17    1
     7    17    18    1
     8    18    19    1
     9    19    20    1
    10    18    21    1
    11    21    22    1
    12     2     3    1
    13     3     4    2
    14     4     5    1
    15     5     6    2
    16     6     7    1
    17     7     8    1
    18     8     9    1
    19     8    10    2
    20    10    11    1
    21    11    12    2
    22    20    15    1
    23    12     3    1
    24    22    15    1
    25    12     6    1
@<TRIPOS>MOLECULE
*****
 22 25 0 0 0
SMALL
GASTEIGER

@<TRIPOS>ATOM
      1 O          63.5127   91.2226   14.0812 O.2     1  UNL1       -0.2448
      2 C          63.6972   90.7128   12.6827 C.2     1  UNL1        0.3428
      3 C          63.2252   89.3365   12.3177 C.2     1  UNL1        0.0958
      4 C          63.6181   88.0598   13.0002 C.2     1  UNL1        0.1049
      5 N          62.9132   86.9297   12.3104 N.2     1  UNL1       -0.2476
      6 C          62.0848   87.5078   11.2016 C.2     1  UNL1        0.0641
      7 C          61.1797   86.8720   10.1884 C.3     1  UNL1        0.0788
      8 C          60.4675   87.7237    9.1798 C.2     1  UNL1        0.0183
      9 BR         59.5625   87.0878    8.1665 Br      1  UNL1       -0.0533
     10 C          60.6604   89.2112    9.1843 C.2     1  UNL1        0.0028
     11 C          61.5654   89.8471   10.1975 C.2     1  UNL1        0.0016
     12 C          62.2776   88.9954   11.2061 C.2     1  UNL1        0.0217
     13 O          64.3536   91.5793   11.6491 O.3     1  UNL1       -0.4454
     14 C          65.5629   92.3906   12.0088 C.3     1  UNL1        0.2087
     15 C          66.3670   93.0561   10.9315 C.3     1  UNL1        0.0445
     16 C          66.0306   94.4524   10.4987 C.3     1  UNL1        0.0210
     17 C          66.8347   95.1179    9.4214 C.3     1  UNL1        0.0722
     18 N          67.9753   94.3872    8.7770 N.3     1  UNL1       -0.2727
     19 C          68.3117   92.9910    9.2098 C.3     1  UNL1        0.0722
     20 C          67.5075   92.3254   10.2871 C.3     1  UNL1        0.0210
     21 C          67.5633   93.9813    9.3631 C.3     1  UNL1        0.0722
     22 C          66.8363   93.3794   10.3372 C.3     1  UNL1        0.0210
@<TRIPOS>BOND
     1     1     2    2
     2     2    13    1
     3    13    14    1
     4    14    15    1
     5    15    16    1
     6    16    17    1
     7    17    18    1
     8    18    19    1
     9    19    20    1
    10    18    21    1
    11    21    22    1
    12     2     3    1
    13     3     4    2
    14     4     5    1
    15     5     6    2
    16     6     7    1
    17     7     8    1
    18     8     9    1
    19     8    10    2
    20    10    11    1
    21    11    12    2
    22    20    15    1
    23    12     3    1
    24    22    15    1
    25    12     6    1
@<TRIPOS>MOLECULE
*****
 22 25 0 0 0
SMALL
GASTEIGER

@<TRIPOS>ATOM
      1 O          61.4495   86.1016    9.8263 O.2     1  UNL1       -0.2448
      2 C          61.9105   86.7244   11.1106 C.2     1  UNL1        0.3428
      3 C          62.3052   88.1712   11.1433 C.2     1  UNL1        0.0958
      4 C          61.9503   89.2054   10.1164 C.2     1  UNL1        0.1049
      5 N          62.5499   90.5111   10.5472 N.2     1  UNL1       -0.2476
      6 C          63.2754   90.2839   11.8403 C.2     1  UNL1        0.0641
      7 C          64.0542   91.2070   12.7298 C.3     1  UNL1        0.0788
      8 C          64.6817   90.6840   13.9878 C.2     1  UNL1        0.0183
      9 BR         65.4606   91.6071   14.8774 Br      1  UNL1       -0.0533
     10 C          64.5305   89.2378   14.3562 C.2     1  UNL1        0.0028
     11 C          63.7517   88.3147   13.4667 C.2     1  UNL1        0.0016
     12 C          63.1242   88.8378   12.2087 C.2     1  UNL1        0.0217
     13 O          61.9767   85.9004   12.3624 O.3     1  UNL1       -0.4454
     14 C          63.1116   84.9417   12.5700 C.3     1  UNL1        0.2087
     15 C          62.8349   83.4769   12.7362 C.3     1  UNL1        0.0445
     16 C          62.3244   82.9539   14.0461 C.3     1  UNL1        0.0210
     17 C          62.0477   81.4891   14.2123 C.3     1  UNL1        0.0722
     18 N          62.2815   80.5471   13.0685 N.3     1  UNL1       -0.2727
     19 C          62.7920   81.0701   11.7586 C.3     1  UNL1        0.0722
     20 C          63.0687   82.5350   11.5924 C.3     1  UNL1        0.0210
     21 C          62.4475   81.3416   12.9299 C.3     1  UNL1        0.0722
     22 C          62.6977   82.6661   12.7795 C.3     1  UNL1        0.0210
@<TRIPOS>BOND
     1     1     2    2
     2     2    13    1
     3    13    14    1
     4    14    15    1
     5    15    16    1
     6    16    17    1
     7    17    18    1
     8    18    19    1
     9    19    20    1
    10    18    21    1
    11    21    22    1
    12     2     3    1
    13     3     4    2
    14     4     5    1
    15     5     6    2
    16     6     7    1
    17     7     8    1
    18     8     9    1
    19     8    10    2
    20    10    11    1
    21    11    12    2
    22    20    15    1
    23    12     3    1
    24    22    15    1
    25    12     6    1
@<TRIPOS>MOLECULE
*****
 22 25 0 0 0
SMALL
GASTEIGER

@<TRIPOS>ATOM
      1 O          64.8640   82.6260   10.5848 O.2     1  UNL1       -0.2448
      2 C          63.7318   83.4795   11.0742 C.2     1  UNL1        0.3428
      3 C          63.1560   83.2506   12.4402 C.2     1  UNL1        0.0958
      4 C          62.3856   82.0414   12.8810 C.2     1  UNL1        0.1049
      5 N          62.0030   82.2343   14.3185 N.2     1  UNL1       -0.2476
      6 C          62.5369   83.5626   14.7661 C.2     1  UNL1        0.0641
      7 C          62.4663   84.2814   16.0808 C.3     1  UNL1        0.0788
      8 C          63.1083   85.6282   16.2346 C.2     1  UNL1        0.0183
      9 BR         63.0377   86.3471   17.5493 Br      1  UNL1       -0.0533
     10 C          63.8209   86.2564   15.0737 C.2     1  UNL1        0.0028
     11 C          63.8915   85.5377   13.7591 C.2     1  UNL1        0.0016
     12 C          63.2495   84.1908   13.6053 C.2     1  UNL1        0.0217
     13 O          63.1753   84.5620   10.1974 O.3     1  UNL1       -0.4454
     14 C          61.8816   85.2294   10.5594 C.3     1  UNL1        0.2087
     15 C          61.6880   86.6906   10.2809 C.3     1  UNL1        0.0445
     16 C          62.4283   87.7131   11.0910 C.3     1  UNL1        0.0210
     17 C          62.2347   89.1742   10.8124 C.3     1  UNL1        0.0722
     18 N          61.3006   89.6129    9.7237 N.3     1  UNL1       -0.2727
     19 C          60.5603   88.5903    8.9136 C.3     1  UNL1        0.0722
     20 C          60.7540   87.1291    9.1922 C.3     1  UNL1        0.0210
     21 C          61.3743   88.8010    9.8395 C.3     1  UNL1        0.0722
     22 C          61.5493   87.4798   10.0913 C.3     1  UNL1        0.0210
@<TRIPOS>BOND
     1     1     2    2
     2     2    13    1
     3    13    14    1
     4    14    15    1
     5    15    16    1
     6    16    17    1
     7    17    18    1
     8    18    19    1
     9    19    20    1
    10    18    21    1
    11    21    22    1
    12     2     3    1
    13     3     4    2
    14     4     5    1
    15     5     6    2
    16     6     7    1
    17     7     8    1
    18     8     9    1
    19     8    10    2
    20    10    11    1
    21    11    12    2
    22    20    15    1
    23    12     3    1
    24    22    15    1
    25    12     6    1
@<TRIPOS>MOLECULE
*****
 22 25 0 0 0
SMALL
GASTEIGER

@<TRIPOS>ATOM
      1 O          63.5991   91.1964   14.5880 O.2     1  UNL1       -0.2448
      2 C          63.7612   90.8329   13.1419 C.2     1  UNL1        0.3428
      3 C          63.3609   89.4693   12.6618 C.2     1  UNL1        0.0958
      4 C          62.5622   89.1681   11.4284 C.2     1  UNL1        0.1049
      5 N          62.3967   87.6802   11.3352 N.2     1  UNL1       -0.2476
      6 C          63.0932   87.0618   12.5110 C.2     1  UNL1        0.0641
      7 C          63.2617   85.6347   12.9411 C.3     1  UNL1        0.0788
      8 C          64.0262   85.3133   14.1910 C.2     1  UNL1        0.0183
      9 BR         64.1947   83.8862   14.6210 Br      1  UNL1       -0.0533
     10 C          64.6221   86.4191   15.0109 C.2     1  UNL1        0.0028
     11 C          64.4535   87.8462   14.5808 C.2     1  UNL1        0.0016
     12 C          63.6891   88.1675   13.3309 C.2     1  UNL1        0.0217
     13 O          64.3237   91.8330   12.1757 O.3     1  UNL1       -0.4454
     14 C          65.7143   92.3615   12.3679 C.3     1  UNL1        0.2087
     15 C          66.4234   93.0373   11.2319 C.3     1  UNL1        0.0445
     16 C          67.4127   92.2721   10.4039 C.3     1  UNL1        0.0210
     17 C          68.1218   92.9480    9.2679 C.3     1  UNL1        0.0722
     18 N          67.8416   94.3890    8.9599 N.3     1  UNL1       -0.2727
     19 C          66.8522   95.1542    9.7880 C.3     1  UNL1        0.0722
     20 C          66.1431   94.4783   10.9240 C.3     1  UNL1        0.0210
     21 C          67.4284   94.0615    9.5925 C.3     1  UNL1        0.0722
     22 C          66.7872   93.4505   10.6196 C.3     1  UNL1        0.0210
@<TRIPOS>BOND
     1     1     2    2
     2     2    13    1
     3    13    14    1
     4    14    15    1
     5    15    16    1
     6    16    17    1
     7    17    18    1
     8    18    19    1
     9    19    20    1
    10    18    21    1
    11    21    22    1
    12     2     3    1
    13     3     4    2
    14     4     5    1
    15     5     6    2
    16     6     7    1
    17     7     8    1
    18     8     9    1
    19     8    10    2
    20    10    11    1
    21    11    12    2
    22    20    15    1
    23    12     3    1
    24    22    15    1
    25    12     6    1
@<TRIPOS>MOLECULE
*****
 22 25 0 0 0
SMALL
GASTEIGER

@<TRIPOS>ATOM
      1 O          59.5099   87.6512    9.0364 O.2     1  UNL1       -0.2448
      2 C          60.8031   87.5019    9.7815 C.2     1  UNL1        0.3428
      3 C          61.7227   86.3595    9.4665 C.2     1  UNL1        0.0958
      4 C          62.2071   85.9681    8.1019 C.2     1  UNL1        0.1049
      5 N          63.1031   84.7746    8.2528 N.2     1  UNL1       -0.2476
      6 C          63.1725   84.4284    9.7107 C.2     1  UNL1        0.0641
      7 C          63.9023   83.3478   10.4520 C.3     1  UNL1        0.0788
      8 C          63.7789   83.2467   11.9435 C.2     1  UNL1        0.0183
      9 BR         64.5087   82.1660   12.6849 Br      1  UNL1       -0.0533
     10 C          62.9257   84.2262   12.6936 C.2     1  UNL1        0.0028
     11 C          62.1959   85.3068   11.9522 C.2     1  UNL1        0.0016
     12 C          62.3193   85.4079   10.4608 C.2     1  UNL1        0.0217
     13 O          61.1767   88.4950   10.8419 O.3     1  UNL1       -0.4454
     14 C          62.5618   89.0697   10.8766 C.3     1  UNL1        0.2087
     15 C          63.2241   89.3513   12.1926 C.3     1  UNL1        0.0445
     16 C          63.4915   90.7670   12.6100 C.3     1  UNL1        0.0210
     17 C          64.1539   91.0484   13.9261 C.3     1  UNL1        0.0722
     18 N          64.5489   89.9142   14.8248 N.3     1  UNL1       -0.2727
     19 C          64.2815   88.4985   14.4073 C.3     1  UNL1        0.0722
     20 C          63.6191   88.2170   13.0912 C.3     1  UNL1        0.0210
     21 C          64.1885   89.7105   14.1130 C.3     1  UNL1        0.0722
     22 C          63.5895   89.4559   12.9230 C.3     1  UNL1        0.0210
@<TRIPOS>BOND
     1     1     2    2
     2     2    13    1
     3    13    14    1
     4    14    15    1
     5    15    16    1
     6    16    17    1
     7    17    18    1
     8    18    19    1
     9    19    20    1
    10    18    21    1
    11    21    22    1
    12     2     3    1
    13     3     4    2
    14     4     5    1
    15     5     6    2
    16     6     7    1
    17     7     8    1
    18     8     9    1
    19     8    10    2
    20    10    11    1
    21    11    12    2
    22    20    15    1
    23    12     3    1
    24    22    15    1
    25    12     6    1
@<TRIPOS>MOLECULE
*****
 22 25 0 0 0
SMALL
GASTEIGER

@<TRIPOS>ATOM
      1 O          63.6565   88.7647   15.2551 O.2     1  UNL1       -0.2448
      2 C          63.6212   89.7522   14.1266 C.2     1  UNL1        0.3428
      3 C          64.5113   90.9591   14.1579 C.2     1  UNL1        0.0958
      4 C          65.1661   91.5404   15.3758 C.2     1  UNL1        0.1049
      5 N          65.9624   92.7372   14.9473 N.2     1  UNL1       -0.2476
      6 C          65.7998   92.8956   13.4646 C.2     1  UNL1        0.0641
      7 C          66.3524   93.8984   12.4957 C.3     1  UNL1        0.0788
      8 C          66.0082   93.8024   11.0389 C.2     1  UNL1        0.0183
      9 BR         66.5609   94.8053   10.0700 Br      1  UNL1       -0.0533
     10 C          65.1114   92.7035   10.5510 C.2     1  UNL1        0.0028
     11 C          64.5587   91.7006   11.5199 C.2     1  UNL1        0.0016
     12 C          64.9029   91.7966   12.9767 C.2     1  UNL1        0.0217
     13 O          62.6956   89.5328   12.9667 O.3     1  UNL1       -0.4454
     14 C          63.0149   88.4871   11.9398 C.3     1  UNL1        0.2087
     15 C          62.0549   88.2190   10.8189 C.3     1  UNL1        0.0445
     16 C          61.6883   86.8077   10.4668 C.3     1  UNL1        0.0210
     17 C          60.7283   86.5397    9.3459 C.3     1  UNL1        0.0722
     18 N          60.1346   87.6828    8.5772 N.3     1  UNL1       -0.2727
     19 C          60.5011   89.0940    8.9293 C.3     1  UNL1        0.0722
     20 C          61.4613   89.3621   10.0503 C.3     1  UNL1        0.0210
     21 C          60.6563   87.8792    9.1832 C.3     1  UNL1        0.0722
     22 C          61.5244   88.1218   10.1967 C.3     1  UNL1        0.0210
@<TRIPOS>BOND
     1     1     2    2
     2     2    13    1
     3    13    14    1
     4    14    15    1
     5    15    16    1
     6    16    17    1
     7    17    18    1
     8    18    19    1
     9    19    20    1
    10    18    21    1
    11    21    22    1
    12     2     3    1
    13     3     4    2
    14     4     5    1
    15     5     6    2
    16     6     7    1
    17     7     8    1
    18     8     9    1
    19     8    10    2
    20    10    11    1
    21    11    12    2
    22    20    15    1
    23    12     3    1
    24    22    15    1
    25    12     6    1
@<TRIPOS>MOLECULE
*****
 22 25 0 0 0
SMALL
GASTEIGER

@<TRIPOS>ATOM
      1 O          60.8934   89.3460   12.1312 O.2     1  UNL1       -0.2448
      2 C          62.3572   89.0227   12.0808 C.2     1  UNL1        0.3428
      3 C          63.3484   89.9256   12.7533 C.2     1  UNL1        0.0958
      4 C          63.8059   89.8267   14.1784 C.2     1  UNL1        0.1049
      5 N          64.7963   90.9259   14.4246 N.2     1  UNL1       -0.2476
      6 C          64.9510   91.7043   13.1517 C.2     1  UNL1        0.0641
      7 C          65.7911   92.8960   12.7997 C.3     1  UNL1        0.0788
      8 C          65.7363   93.4695   11.4148 C.2     1  UNL1        0.0183
      9 BR         66.5764   94.6614   11.0628 Br      1  UNL1       -0.0533
     10 C          64.8414   92.8513   10.3819 C.2     1  UNL1        0.0028
     11 C          64.0013   91.6596   10.7338 C.2     1  UNL1        0.0016
     12 C          64.0561   91.0860   12.1187 C.2     1  UNL1        0.0217
     13 O          62.8299   87.7963   11.3577 O.3     1  UNL1       -0.4454
     14 C          61.8698   86.6818   11.0645 C.3     1  UNL1        0.2087
     15 C          61.6895   86.1985    9.6560 C.3     1  UNL1        0.0445
     16 C          60.3873   86.4241    8.9465 C.3     1  UNL1        0.0210
     17 C          60.2071   85.9407    7.5380 C.3     1  UNL1        0.0722
     18 N          61.3290   85.2318    6.8389 N.3     1  UNL1       -0.2727
     19 C          62.6312   85.0062    7.5484 C.3     1  UNL1        0.0722
     20 C          62.8115   85.4896    8.9570 C.3     1  UNL1        0.0210
     21 C          61.4748   85.4785    7.6109 C.3     1  UNL1        0.0722
     22 C          61.6379   85.9155    8.8845 C.3     1  UNL1        0.0210
@<TRIPOS>BOND
     1     1     2    2
     2     2    13    1
     3    13    14    1
     4    14    15    1
     5    15    16    1
     6    16    17    1
     7    17    18    1
     8    18    19    1
     9    19    20    1
    10    18    21    1
    11    21    22    1
    12     2     3    1
    13     3     4    2
    14     4     5    1
    15     5     6    2
    16     6     7    1
    17     7     8    1
    18     8     9    1
    19     8    10    2
    20    10    11    1
    21    11    12    2
    22    20    15    1
    23    12     3    1
    24    22    15    1
    25    12     6    1
