@<TRIPOS>MOLECULE
*****
 37 40 0 0 0
SMALL
GASTEIGER

@<TRIPOS>ATOM
      1 N          59.4228   92.1268    4.2399 N.am    1  UNL1       -0.2681
      2 C          59.8542   91.0569    5.1986 C.2     1  UNL1        0.3082
      3 O          61.2741   90.5733    5.1936 O.2     1  UNL1       -0.2522
      4 N          58.8656   90.4705    6.1624 N.am    1  UNL1       -0.2681
      5 H          58.4909   92.4441    4.2432 H       1  UNL1        0.1564
      6 H          57.9337   90.7878    6.1657 H       1  UNL1        0.1564
      7 C          62.3885   93.8859    1.3485 C.ar    1  UNL1        0.0179
      8 C          61.1216   94.6239    1.6653 C.ar    1  UNL1        0.0028
      9 C          60.1330   94.0375    2.6291 C.ar    1  UNL1        0.0148
     10 C          60.4114   92.7132    3.2761 C.ar    1  UNL1        0.0516
     11 C          61.6783   91.9752    2.9593 C.ar    1  UNL1        0.0148
     12 C          62.6668   92.5616    1.9955 C.ar    1  UNL1        0.0028
     13 C          62.2649   93.3774   -1.8681 C.ar    1  UNL1        0.0013
     14 C          62.6438   93.4613   -3.3171 C.ar    1  UNL1        0.0963
     15 N          63.8644   94.3262   -3.4276 N.ar    1  UNL1       -0.2272
     16 C          64.2398   94.7767   -2.0470 C.ar    1  UNL1        0.1428
     17 N          65.3541   95.6451   -1.5429 N.ar    1  UNL1       -0.3215
     18 C          65.4799   95.9271   -0.0751 C.ar    1  UNL1        0.1760
     19 N          64.4914   95.3408    0.8887 N.ar    1  UNL1       -0.2255
     20 C          63.3770   94.4723    0.3847 C.ar    1  UNL1        0.0856
     21 C          63.2513   94.1903   -1.0832 C.ar    1  UNL1        0.0492
     22 H          66.0030   96.0300   -2.1755 H       1  UNL1        0.1689
     23 C          59.7074   93.1337   -1.4807 C.3     1  UNL1        0.0051
     24 C          61.1035   92.6144   -1.3033 C.3     1  UNL1        0.0281
     25 C          59.2970   89.4005    7.1212 C.ar    1  UNL1        0.0517
     26 C          59.0392   87.9580    6.8008 C.ar    1  UNL1        0.0147
     27 C          59.4706   86.8881    7.7596 C.ar    1  UNL1        0.0014
     28 C          60.1599   87.2607    9.0387 C.ar    1  UNL1        0.0046
     29 C          60.4177   88.7033    9.3590 C.ar    1  UNL1        0.0546
     30 C          59.9863   89.7732    8.4003 C.ar    1  UNL1        0.0192
     31 C          61.1069   89.0760   10.6381 C.2     1  UNL1        0.2458
     32 O          60.3457   89.0663   11.9306 O.2     1  UNL1       -0.2701
     33 N          62.5573   89.4583   10.6247 N.am    1  UNL1       -0.3025
     34 H          63.0569   89.4647    9.7764 H       1  UNL1        0.1497
     35 C          63.2465   89.8310   11.9038 C.3     1  UNL1        0.0720
     36 C          63.5796   88.7719   12.9124 C.3     1  UNL1        0.0213
     37 C          63.6027   91.2628   12.1743 C.3     1  UNL1        0.0213
@<TRIPOS>BOND
     1    23    24    1
     2    24    13    1
     3    13    14   ar
     4    14    15   ar
     5    15    16   ar
     6    16    17   ar
     7    17    18   ar
     8    18    19   ar
     9    19    20   ar
    10    20     7    1
    11     7     8   ar
    12     8     9   ar
    13     9    10   ar
    14    10     1    1
    15     1     2   am
    16     2     3    2
    17     2     4   am
    18     4    25    1
    19    25    26   ar
    20    26    27   ar
    21    27    28   ar
    22    28    29   ar
    23    29    31    1
    24    31    32    2
    25    31    33   am
    26    33    35    1
    27    35    36    1
    28    35    37    1
    29    29    30   ar
    30    10    11   ar
    31    11    12   ar
    32    20    21   ar
    33    21    13   ar
    34    21    16    1
    35    12     7   ar
    36    30    25   ar
    37    17    22    1
    38     1     5    1
    39     4     6    1
    40    33    34    1
@<TRIPOS>MOLECULE
*****
 37 40 0 0 0
SMALL
GASTEIGER

@<TRIPOS>ATOM
      1 N          59.4392   92.3971    3.9918 N.am    1  UNL1       -0.2681
      2 C          59.8657   91.3000    4.9215 C.2     1  UNL1        0.3082
      3 O          61.1581   90.5763    4.6847 O.2     1  UNL1       -0.2522
      4 N          58.9999   90.9266    6.0881 N.am    1  UNL1       -0.2681
      5 H          58.5910   92.8721    4.1473 H       1  UNL1        0.1564
      6 H          58.1517   91.4016    6.2436 H       1  UNL1        0.1564
      7 C          62.0367   93.5174    0.4921 C.ar    1  UNL1        0.0179
      8 C          60.6239   94.0157    0.5674 C.ar    1  UNL1        0.0028
      9 C          59.7581   93.6423    1.7340 C.ar    1  UNL1        0.0148
     10 C          60.3050   92.7705    2.8253 C.ar    1  UNL1        0.0516
     11 C          61.7178   92.2723    2.7499 C.ar    1  UNL1        0.0148
     12 C          62.5836   92.6457    1.5834 C.ar    1  UNL1        0.0028
     13 C          64.3814   95.7746    0.6578 C.ar    1  UNL1        0.0013
     14 C          65.5068   96.6631    0.2171 C.ar    1  UNL1        0.0963
     15 N          65.7823   96.3789   -1.2297 N.ar    1  UNL1       -0.2272
     16 C          64.8272   95.3148   -1.6832 C.ar    1  UNL1        0.1428
     17 N          64.6341   94.6377   -3.0076 N.ar    1  UNL1       -0.3215
     18 C          63.5752   93.5872   -3.1655 C.ar    1  UNL1        0.1760
     19 N          62.7093   93.2138   -1.9989 N.ar    1  UNL1       -0.2255
     20 C          62.9025   93.8909   -0.6745 C.ar    1  UNL1        0.0856
     21 C          63.9614   94.9414   -0.5166 C.ar    1  UNL1        0.0492
     22 H          65.2024   94.8828   -3.7733 H       1  UNL1        0.1689
     23 C          64.6676   95.5763    3.2325 C.3     1  UNL1        0.0051
     24 C          63.7813   95.7277    2.0318 C.3     1  UNL1        0.0281
     25 C          59.4264   89.8294    7.0178 C.ar    1  UNL1        0.0517
     26 C          59.2146   88.3953    6.6327 C.ar    1  UNL1        0.0147
     27 C          59.6412   87.2981    7.5624 C.ar    1  UNL1        0.0014
     28 C          60.2795   87.6351    8.8773 C.ar    1  UNL1        0.0046
     29 C          60.4914   89.0693    9.2624 C.ar    1  UNL1        0.0546
     30 C          60.0648   90.1664    8.3327 C.ar    1  UNL1        0.0192
     31 C          61.1298   89.4064   10.5773 C.2     1  UNL1        0.2458
     32 O          60.2899   89.9201   11.7090 O.2     1  UNL1       -0.2701
     33 N          62.6081   89.2297   10.7604 N.am    1  UNL1       -0.3025
     34 H          63.1593   88.8925   10.0177 H       1  UNL1        0.1497
     35 C          63.2465   89.5667   12.0753 C.3     1  UNL1        0.0720
     36 C          63.5489   90.9954   12.4179 C.3     1  UNL1        0.0213
     37 C          63.5824   88.4750   13.0476 C.3     1  UNL1        0.0213
@<TRIPOS>BOND
     1    23    24    1
     2    24    13    1
     3    13    14   ar
     4    14    15   ar
     5    15    16   ar
     6    16    17   ar
     7    17    18   ar
     8    18    19   ar
     9    19    20   ar
    10    20     7    1
    11     7     8   ar
    12     8     9   ar
    13     9    10   ar
    14    10     1    1
    15     1     2   am
    16     2     3    2
    17     2     4   am
    18     4    25    1
    19    25    26   ar
    20    26    27   ar
    21    27    28   ar
    22    28    29   ar
    23    29    31    1
    24    31    32    2
    25    31    33   am
    26    33    35    1
    27    35    36    1
    28    35    37    1
    29    29    30   ar
    30    10    11   ar
    31    11    12   ar
    32    20    21   ar
    33    21    13   ar
    34    21    16    1
    35    12     7   ar
    36    30    25   ar
    37    17    22    1
    38     1     5    1
    39     4     6    1
    40    33    34    1
@<TRIPOS>MOLECULE
*****
 37 40 0 0 0
SMALL
GASTEIGER

@<TRIPOS>ATOM
      1 N          63.1555   87.9806   16.1714 N.am    1  UNL1       -0.2681
      2 C          64.0499   89.0086   15.5444 C.2     1  UNL1        0.3082
      3 O          64.8640   88.6568   14.3345 O.2     1  UNL1       -0.2522
      4 N          64.1303   90.3884   16.1272 N.am    1  UNL1       -0.2681
      5 H          62.6212   88.2115   16.9654 H       1  UNL1        0.1564
      6 H          63.5961   90.6193   16.9212 H       1  UNL1        0.1564
      7 C          62.9142   83.8411   14.4230 C.ar    1  UNL1        0.0179
      8 C          61.7636   84.3895   15.2137 C.ar    1  UNL1        0.0028
      9 C          61.8440   85.7693   15.7965 C.ar    1  UNL1        0.0148
     10 C          63.0751   86.6007   15.5886 C.ar    1  UNL1        0.0516
     11 C          64.2257   86.0523   14.7978 C.ar    1  UNL1        0.0148
     12 C          64.1452   84.6725   14.2151 C.ar    1  UNL1        0.0028
     13 C          63.3018   83.2175   11.2479 C.ar    1  UNL1        0.0013
     14 C          63.3931   82.4311    9.9739 C.ar    1  UNL1        0.0963
     15 N          63.1717   80.9849   10.3050 N.ar    1  UNL1       -0.2272
     16 C          62.9435   80.8776   11.7836 C.ar    1  UNL1        0.1428
     17 N          62.6729   79.7017   12.6747 N.ar    1  UNL1       -0.3215
     18 C          62.4827   79.9056   14.1485 C.ar    1  UNL1        0.1760
     19 N          62.5632   81.2854   14.7313 N.ar    1  UNL1       -0.2255
     20 C          62.8338   82.4613   13.8402 C.ar    1  UNL1        0.0856
     21 C          63.0240   82.2574   12.3664 C.ar    1  UNL1        0.0492
     22 H          62.6201   78.7960   12.2922 H       1  UNL1        0.1689
     23 C          62.2733   85.6029   11.2039 C.3     1  UNL1        0.0051
     24 C          63.4605   84.7032   11.3803 C.3     1  UNL1        0.0281
     25 C          65.0248   91.4164   15.5001 C.ar    1  UNL1        0.0517
     26 C          65.7938   92.3698   16.3659 C.ar    1  UNL1        0.0147
     27 C          66.6883   93.3979   15.7388 C.ar    1  UNL1        0.0014
     28 C          66.8137   93.4724   14.2460 C.ar    1  UNL1        0.0046
     29 C          66.0447   92.5189   13.3801 C.ar    1  UNL1        0.0546
     30 C          65.1503   91.4910   14.0072 C.ar    1  UNL1        0.0192
     31 C          66.1702   92.5935   11.8873 C.2     1  UNL1        0.2458
     32 O          65.0449   92.1205   11.0155 O.2     1  UNL1       -0.2701
     33 N          67.4210   93.1411   11.2661 N.am    1  UNL1       -0.3025
     34 H          68.1595   93.4515   11.8383 H       1  UNL1        0.1497
     35 C          67.5465   93.2156    9.7733 C.3     1  UNL1        0.0720
     36 C          66.9203   94.3542    9.0239 C.3     1  UNL1        0.0213
     37 C          68.2982   92.1516    9.0297 C.3     1  UNL1        0.0213
@<TRIPOS>BOND
     1    23    24    1
     2    24    13    1
     3    13    14   ar
     4    14    15   ar
     5    15    16   ar
     6    16    17   ar
     7    17    18   ar
     8    18    19   ar
     9    19    20   ar
    10    20     7    1
    11     7     8   ar
    12     8     9   ar
    13     9    10   ar
    14    10     1    1
    15     1     2   am
    16     2     3    2
    17     2     4   am
    18     4    25    1
    19    25    26   ar
    20    26    27   ar
    21    27    28   ar
    22    28    29   ar
    23    29    31    1
    24    31    32    2
    25    31    33   am
    26    33    35    1
    27    35    36    1
    28    35    37    1
    29    29    30   ar
    30    10    11   ar
    31    11    12   ar
    32    20    21   ar
    33    21    13   ar
    34    21    16    1
    35    12     7   ar
    36    30    25   ar
    37    17    22    1
    38     1     5    1
    39     4     6    1
    40    33    34    1
@<TRIPOS>MOLECULE
*****
 37 40 0 0 0
SMALL
GASTEIGER

@<TRIPOS>ATOM
      1 N          59.7737   87.0525    8.2347 N.am    1  UNL1       -0.2681
      2 C          59.8478   88.3790    7.5386 C.2     1  UNL1        0.3082
      3 O          60.7936   89.4334    8.0324 O.2     1  UNL1       -0.2522
      4 N          58.9761   88.6513    6.3486 N.am    1  UNL1       -0.2681
      5 H          59.1529   86.3605    7.9107 H       1  UNL1        0.1564
      6 H          58.3553   87.9593    6.0245 H       1  UNL1        0.1564
      7 C          62.3887   86.2356   11.8046 C.ar    1  UNL1        0.0179
      8 C          61.1294   87.0346   11.9646 C.ar    1  UNL1        0.0028
      9 C          60.2577   87.3069   10.7746 C.ar    1  UNL1        0.0148
     10 C          60.6454   86.7802    9.4247 C.ar    1  UNL1        0.0516
     11 C          61.9047   85.9812    9.2648 C.ar    1  UNL1        0.0148
     12 C          62.7764   85.7089   10.4548 C.ar    1  UNL1        0.0028
     13 C          63.1787   83.2315   12.7905 C.ar    1  UNL1        0.0013
     14 C          63.8036   82.1444   13.6137 C.ar    1  UNL1        0.0963
     15 N          64.5891   82.7910   14.7159 N.ar    1  UNL1       -0.2272
     16 C          64.4497   84.2777   14.5740 C.ar    1  UNL1        0.1428
     17 N          65.0038   85.4188   15.3745 N.ar    1  UNL1       -0.3215
     18 C          64.6863   86.8321   14.9851 C.ar    1  UNL1        0.1760
     19 N          63.8146   87.1043   13.7952 N.ar    1  UNL1       -0.2255
     20 C          63.2604   85.9633   12.9946 C.ar    1  UNL1        0.0856
     21 C          63.5780   84.5500   13.3840 C.ar    1  UNL1        0.0492
     22 H          65.5759   85.2401   16.1555 H       1  UNL1        0.1689
     23 C          62.7036   82.0489   10.5265 C.3     1  UNL1        0.0051
     24 C          62.3075   83.0348   11.5854 C.3     1  UNL1        0.0281
     25 C          59.0502   89.9780    5.6525 C.ar    1  UNL1        0.0517
     26 C          57.8778   90.9127    5.6928 C.ar    1  UNL1        0.0147
     27 C          57.9520   92.2394    4.9967 C.ar    1  UNL1        0.0014
     28 C          59.1986   92.6312    4.2601 C.ar    1  UNL1        0.0046
     29 C          60.3710   91.6963    4.2198 C.ar    1  UNL1        0.0546
     30 C          60.2968   90.3698    4.9159 C.ar    1  UNL1        0.0192
     31 C          61.6176   92.0882    3.4833 C.2     1  UNL1        0.2458
     32 O          62.9101   91.3823    3.7679 O.2     1  UNL1       -0.2701
     33 N          61.5717   93.1859    2.4620 N.am    1  UNL1       -0.3025
     34 H          60.7233   93.6492    2.2752 H       1  UNL1        0.1497
     35 C          62.8183   93.5778    1.7255 C.3     1  UNL1        0.0720
     36 C          62.9488   93.2807    0.2610 C.3     1  UNL1        0.0213
     37 C          63.9343   94.2666    2.4535 C.3     1  UNL1        0.0213
@<TRIPOS>BOND
     1    23    24    1
     2    24    13    1
     3    13    14   ar
     4    14    15   ar
     5    15    16   ar
     6    16    17   ar
     7    17    18   ar
     8    18    19   ar
     9    19    20   ar
    10    20     7    1
    11     7     8   ar
    12     8     9   ar
    13     9    10   ar
    14    10     1    1
    15     1     2   am
    16     2     3    2
    17     2     4   am
    18     4    25    1
    19    25    26   ar
    20    26    27   ar
    21    27    28   ar
    22    28    29   ar
    23    29    31    1
    24    31    32    2
    25    31    33   am
    26    33    35    1
    27    35    36    1
    28    35    37    1
    29    29    30   ar
    30    10    11   ar
    31    11    12   ar
    32    20    21   ar
    33    21    13   ar
    34    21    16    1
    35    12     7   ar
    36    30    25   ar
    37    17    22    1
    38     1     5    1
    39     4     6    1
    40    33    34    1
@<TRIPOS>MOLECULE
*****
 37 40 0 0 0
SMALL
GASTEIGER

@<TRIPOS>ATOM
      1 N          58.9559   89.9333    7.0336 N.am    1  UNL1       -0.2681
      2 C          59.6763   90.4849    5.8392 C.2     1  UNL1        0.3082
      3 O          61.0965   90.0844    5.5689 O.2     1  UNL1       -0.2522
      4 N          58.9767   91.4368    4.9149 N.am    1  UNL1       -0.2681
      5 H          58.0239   90.1961    7.2110 H       1  UNL1        0.1564
      6 H          58.0446   91.6997    5.0923 H       1  UNL1        0.1564
      7 C          61.0549   87.0774    9.8064 C.ar    1  UNL1        0.0179
      8 C          61.3632   88.5441    9.8665 C.ar    1  UNL1        0.0028
      9 C          60.6635   89.4961    8.9423 C.ar    1  UNL1        0.0148
     10 C          59.6556   88.9814    7.9579 C.ar    1  UNL1        0.0516
     11 C          59.3473   87.5146    7.8977 C.ar    1  UNL1        0.0148
     12 C          60.0469   86.5627    8.8220 C.ar    1  UNL1        0.0028
     13 C          63.0265   84.7006    8.7652 C.ar    1  UNL1        0.0013
     14 C          63.9607   83.5284    8.8200 C.ar    1  UNL1        0.0963
     15 N          64.1585   83.1603   10.2606 N.ar    1  UNL1       -0.2272
     16 C          63.3465   84.1051   11.0961 C.ar    1  UNL1        0.1428
     17 N          63.1538   84.2215   12.5791 N.ar    1  UNL1       -0.3215
     18 C          62.2615   85.2899   13.1378 C.ar    1  UNL1        0.1760
     19 N          61.5618   86.2418   12.2136 N.ar    1  UNL1       -0.2255
     20 C          61.7545   86.1254   10.7306 C.ar    1  UNL1        0.0856
     21 C          62.6469   85.0570   10.1719 C.ar    1  UNL1        0.0492
     22 H          63.6130   83.5967   13.1857 H       1  UNL1        0.1689
     23 C          62.1351   84.5903    6.3272 C.3     1  UNL1        0.0051
     24 C          62.5546   85.3946    7.5219 C.3     1  UNL1        0.0281
     25 C          59.6972   91.9884    3.7204 C.ar    1  UNL1        0.0517
     26 C          61.1880   92.1503    3.7526 C.ar    1  UNL1        0.0147
     27 C          61.9085   92.7019    2.5581 C.ar    1  UNL1        0.0014
     28 C          61.1380   93.0915    1.3314 C.ar    1  UNL1        0.0046
     29 C          59.6471   92.9295    1.2993 C.ar    1  UNL1        0.0546
     30 C          58.9267   92.3780    2.4938 C.ar    1  UNL1        0.0192
     31 C          58.8767   93.3191    0.0727 C.2     1  UNL1        0.2458
     32 O          58.7197   94.7671   -0.2859 O.2     1  UNL1       -0.2701
     33 N          58.2632   92.2607   -0.7953 N.am    1  UNL1       -0.3025
     34 H          58.3662   91.3103   -0.5599 H       1  UNL1        0.1497
     35 C          57.4927   92.6503   -2.0219 C.3     1  UNL1        0.0720
     36 C          56.0545   93.0601   -1.9056 C.3     1  UNL1        0.0213
     37 C          58.1605   92.6300   -3.3650 C.3     1  UNL1        0.0213
@<TRIPOS>BOND
     1    23    24    1
     2    24    13    1
     3    13    14   ar
     4    14    15   ar
     5    15    16   ar
     6    16    17   ar
     7    17    18   ar
     8    18    19   ar
     9    19    20   ar
    10    20     7    1
    11     7     8   ar
    12     8     9   ar
    13     9    10   ar
    14    10     1    1
    15     1     2   am
    16     2     3    2
    17     2     4   am
    18     4    25    1
    19    25    26   ar
    20    26    27   ar
    21    27    28   ar
    22    28    29   ar
    23    29    31    1
    24    31    32    2
    25    31    33   am
    26    33    35    1
    27    35    36    1
    28    35    37    1
    29    29    30   ar
    30    10    11   ar
    31    11    12   ar
    32    20    21   ar
    33    21    13   ar
    34    21    16    1
    35    12     7   ar
    36    30    25   ar
    37    17    22    1
    38     1     5    1
    39     4     6    1
    40    33    34    1
@<TRIPOS>MOLECULE
*****
 37 40 0 0 0
SMALL
GASTEIGER

@<TRIPOS>ATOM
      1 N          64.0424   88.5697   13.7578 N.am    1  UNL1       -0.2681
      2 C          64.7195   89.9081   13.7433 C.2     1  UNL1        0.3082
      3 O          64.5398   90.8269   12.5712 O.2     1  UNL1       -0.2522
      4 N          65.5763   90.3277   14.9008 N.am    1  UNL1       -0.2681
      5 H          64.1603   87.9667   14.5271 H       1  UNL1        0.1564
      6 H          65.6943   89.7247   15.6700 H       1  UNL1        0.1564
      7 C          61.4719   87.3107   10.2854 C.ar    1  UNL1        0.0179
      8 C          61.9500   88.7286   10.3893 C.ar    1  UNL1        0.0028
      9 C          62.8068   89.1483   11.5468 C.ar    1  UNL1        0.0148
     10 C          63.1856   88.1500   12.6004 C.ar    1  UNL1        0.0516
     11 C          62.7075   86.7321   12.4964 C.ar    1  UNL1        0.0148
     12 C          61.8507   86.3124   11.3389 C.ar    1  UNL1        0.0028
     13 C          62.4411   85.1673    8.0300 C.ar    1  UNL1        0.0013
     14 C          62.3915   84.2961    6.8099 C.ar    1  UNL1        0.0963
     15 N          61.0547   84.4883    6.1572 N.ar    1  UNL1       -0.2272
     16 C          60.2781   85.4782    6.9738 C.ar    1  UNL1        0.1428
     17 N          58.9015   86.0517    6.8130 N.ar    1  UNL1       -0.3215
     18 C          58.3816   87.0449    7.8096 C.ar    1  UNL1        0.1760
     19 N          59.2385   87.4645    8.9671 N.ar    1  UNL1       -0.2255
     20 C          60.6151   86.8910    9.1279 C.ar    1  UNL1        0.0856
     21 C          61.1349   85.8979    8.1313 C.ar    1  UNL1        0.0492
     22 H          58.3391   85.7763    6.0533 H       1  UNL1        0.1689
     23 C          63.9882   84.1167    9.8336 C.3     1  UNL1        0.0051
     24 C          63.5943   85.2869    8.9817 C.3     1  UNL1        0.0281
     25 C          66.2534   91.6662   14.8862 C.ar    1  UNL1        0.0517
     26 C          67.1303   92.0756   16.0322 C.ar    1  UNL1        0.0147
     27 C          67.8074   93.4140   16.0176 C.ar    1  UNL1        0.0014
     28 C          67.6076   94.3430   14.8570 C.ar    1  UNL1        0.0046
     29 C          66.7306   93.9336   13.7110 C.ar    1  UNL1        0.0546
     30 C          66.0536   92.5952   13.7256 C.ar    1  UNL1        0.0192
     31 C          66.5308   94.8625   12.5503 C.2     1  UNL1        0.2458
     32 O          66.1404   96.2906   12.7913 O.2     1  UNL1       -0.2701
     33 N          66.7214   94.3634   11.1487 N.am    1  UNL1       -0.3025
     34 H          66.9777   93.4261   10.9905 H       1  UNL1        0.1497
     35 C          66.5216   95.2924    9.9880 C.3     1  UNL1        0.0720
     36 C          65.2893   96.1442    9.9127 C.3     1  UNL1        0.0213
     37 C          67.5541   95.3695    8.9027 C.3     1  UNL1        0.0213
@<TRIPOS>BOND
     1    23    24    1
     2    24    13    1
     3    13    14   ar
     4    14    15   ar
     5    15    16   ar
     6    16    17   ar
     7    17    18   ar
     8    18    19   ar
     9    19    20   ar
    10    20     7    1
    11     7     8   ar
    12     8     9   ar
    13     9    10   ar
    14    10     1    1
    15     1     2   am
    16     2     3    2
    17     2     4   am
    18     4    25    1
    19    25    26   ar
    20    26    27   ar
    21    27    28   ar
    22    28    29   ar
    23    29    31    1
    24    31    32    2
    25    31    33   am
    26    33    35    1
    27    35    36    1
    28    35    37    1
    29    29    30   ar
    30    10    11   ar
    31    11    12   ar
    32    20    21   ar
    33    21    13   ar
    34    21    16    1
    35    12     7   ar
    36    30    25   ar
    37    17    22    1
    38     1     5    1
    39     4     6    1
    40    33    34    1
@<TRIPOS>MOLECULE
*****
 37 40 0 0 0
SMALL
GASTEIGER

@<TRIPOS>ATOM
      1 N          58.6051   91.7517    4.2345 N.am    1  UNL1       -0.2681
      2 C          59.3241   90.8471    5.1909 C.2     1  UNL1        0.3082
      3 O          60.8136   90.6934    5.1021 O.2     1  UNL1       -0.2522
      4 N          58.5536   90.0962    6.2361 N.am    1  UNL1       -0.2681
      5 H          57.6275   91.8526    4.2928 H       1  UNL1        0.1564
      6 H          57.5760   90.1971    6.2944 H       1  UNL1        0.1564
      7 C          60.9165   94.0044    1.0988 C.ar    1  UNL1        0.0179
      8 C          60.2267   92.7205    0.7442 C.ar    1  UNL1        0.0028
      9 C          59.4563   91.9696    1.7895 C.ar    1  UNL1        0.0148
     10 C          59.3756   92.5026    3.1892 C.ar    1  UNL1        0.0516
     11 C          60.0654   93.7865    3.5437 C.ar    1  UNL1        0.0148
     12 C          60.8358   94.5374    2.4985 C.ar    1  UNL1        0.0028
     13 C          59.4975   95.6251   -1.3467 C.ar    1  UNL1        0.0013
     14 C          59.3650   96.4676   -2.5806 C.ar    1  UNL1        0.0963
     15 N          60.7441   96.8401   -3.0379 N.ar    1  UNL1       -0.2272
     16 C          61.7291   96.2279   -2.0865 C.ar    1  UNL1        0.1428
     17 N          63.2279   96.2571   -2.0370 N.ar    1  UNL1       -0.3215
     18 C          63.9563   95.5355   -0.9422 C.ar    1  UNL1        0.1760
     19 N          63.1859   94.7846    0.1031 N.ar    1  UNL1       -0.2255
     20 C          61.6870   94.7553    0.0535 C.ar    1  UNL1        0.0856
     21 C          60.9586   95.4770   -1.0413 C.ar    1  UNL1        0.0492
     22 H          63.7336   96.7499   -2.7230 H       1  UNL1        0.1689
     23 C          57.0640   94.7225   -1.2305 C.3     1  UNL1        0.0051
     24 C          58.3674   95.0345   -0.5567 C.3     1  UNL1        0.0281
     25 C          59.2726   89.1916    7.1925 C.ar    1  UNL1        0.0517
     26 C          59.2223   87.7048    7.0004 C.ar    1  UNL1        0.0147
     27 C          59.9413   86.8002    7.9568 C.ar    1  UNL1        0.0014
     28 C          60.7107   87.3824    9.1054 C.ar    1  UNL1        0.0046
     29 C          60.7610   88.8692    9.2975 C.ar    1  UNL1        0.0546
     30 C          60.0420   89.7738    8.3411 C.ar    1  UNL1        0.0192
     31 C          61.5303   89.4514   10.4460 C.2     1  UNL1        0.2458
     32 O          61.0758   89.2061   11.8543 O.2     1  UNL1       -0.2701
     33 N          62.7541   90.2790   10.1863 N.am    1  UNL1       -0.3025
     34 H          63.0524   90.4400    9.2620 H       1  UNL1        0.1497
     35 C          63.5235   90.8612   11.3348 C.3     1  UNL1        0.0720
     36 C          64.4514   92.0174   11.1067 C.3     1  UNL1        0.0213
     37 C          63.3649   90.2871   12.7116 C.3     1  UNL1        0.0213
@<TRIPOS>BOND
     1    23    24    1
     2    24    13    1
     3    13    14   ar
     4    14    15   ar
     5    15    16   ar
     6    16    17   ar
     7    17    18   ar
     8    18    19   ar
     9    19    20   ar
    10    20     7    1
    11     7     8   ar
    12     8     9   ar
    13     9    10   ar
    14    10     1    1
    15     1     2   am
    16     2     3    2
    17     2     4   am
    18     4    25    1
    19    25    26   ar
    20    26    27   ar
    21    27    28   ar
    22    28    29   ar
    23    29    31    1
    24    31    32    2
    25    31    33   am
    26    33    35    1
    27    35    36    1
    28    35    37    1
    29    29    30   ar
    30    10    11   ar
    31    11    12   ar
    32    20    21   ar
    33    21    13   ar
    34    21    16    1
    35    12     7   ar
    36    30    25   ar
    37    17    22    1
    38     1     5    1
    39     4     6    1
    40    33    34    1
@<TRIPOS>MOLECULE
*****
 37 40 0 0 0
SMALL
GASTEIGER

@<TRIPOS>ATOM
      1 N          58.6990   90.1959    6.2038 N.am    1  UNL1       -0.2681
      2 C          59.4840   90.8821    5.1255 C.2     1  UNL1        0.3082
      3 O          60.9819   90.8011    5.1211 O.2     1  UNL1       -0.2522
      4 N          58.7713   91.6493    4.0515 N.am    1  UNL1       -0.2681
      5 H          57.7159   90.2491    6.2067 H       1  UNL1        0.1564
      6 H          57.7882   91.7025    4.0543 H       1  UNL1        0.1564
      7 C          60.8371   87.8944    9.4258 C.ar    1  UNL1        0.0179
      8 C          60.5126   87.2314    8.1200 C.ar    1  UNL1        0.0028
      9 C          59.7998   87.9985    7.0460 C.ar    1  UNL1        0.0148
     10 C          59.4117   89.4288    7.2778 C.ar    1  UNL1        0.0516
     11 C          59.7363   90.0918    8.5835 C.ar    1  UNL1        0.0148
     12 C          60.4490   89.3246    9.6575 C.ar    1  UNL1        0.0028
     13 C          62.7356   89.3043   11.6682 C.ar    1  UNL1        0.0013
     14 C          63.6518   89.4353   12.8486 C.ar    1  UNL1        0.0963
     15 N          63.8888   88.0630   13.4059 N.ar    1  UNL1       -0.2272
     16 C          63.1192   87.0838   12.5698 C.ar    1  UNL1        0.1428
     17 N          62.9753   85.5928   12.6477 N.ar    1  UNL1       -0.3215
     18 C          62.1187   84.8690   11.6516 C.ar    1  UNL1        0.1760
     19 N          61.4060   85.6362   10.5776 N.ar    1  UNL1       -0.2255
     20 C          61.5499   87.1272   10.4997 C.ar    1  UNL1        0.0856
     21 C          62.4065   87.8510   11.4958 C.ar    1  UNL1        0.0492
     22 H          63.4431   85.0893   13.3526 H       1  UNL1        0.1689
     23 C          63.2092   91.3839   10.1845 C.3     1  UNL1        0.0051
     24 C          62.2363   90.4291   10.8106 C.3     1  UNL1        0.0281
     25 C          59.5564   92.3355    2.9731 C.ar    1  UNL1        0.0517
     26 C          60.9918   92.7021    3.2082 C.ar    1  UNL1        0.0147
     27 C          61.7769   93.3882    2.1298 C.ar    1  UNL1        0.0014
     28 C          61.1266   93.7078    0.8164 C.ar    1  UNL1        0.0046
     29 C          59.6911   93.3412    0.5814 C.ar    1  UNL1        0.0546
     30 C          58.9061   92.6550    1.6597 C.ar    1  UNL1        0.0192
     31 C          59.0408   93.6607   -0.7320 C.2     1  UNL1        0.2458
     32 O          57.8770   94.6056   -0.7824 O.2     1  UNL1       -0.2701
     33 N          59.5544   93.0353   -1.9950 N.am    1  UNL1       -0.3025
     34 H          60.3183   92.4151   -1.9619 H       1  UNL1        0.1497
     35 C          58.9041   93.3548   -3.3084 C.3     1  UNL1        0.0720
     36 C          57.7500   92.5291   -3.7944 C.3     1  UNL1        0.0213
     37 C          59.4079   94.5001   -4.1358 C.3     1  UNL1        0.0213
@<TRIPOS>BOND
     1    23    24    1
     2    24    13    1
     3    13    14   ar
     4    14    15   ar
     5    15    16   ar
     6    16    17   ar
     7    17    18   ar
     8    18    19   ar
     9    19    20   ar
    10    20     7    1
    11     7     8   ar
    12     8     9   ar
    13     9    10   ar
    14    10     1    1
    15     1     2   am
    16     2     3    2
    17     2     4   am
    18     4    25    1
    19    25    26   ar
    20    26    27   ar
    21    27    28   ar
    22    28    29   ar
    23    29    31    1
    24    31    32    2
    25    31    33   am
    26    33    35    1
    27    35    36    1
    28    35    37    1
    29    29    30   ar
    30    10    11   ar
    31    11    12   ar
    32    20    21   ar
    33    21    13   ar
    34    21    16    1
    35    12     7   ar
    36    30    25   ar
    37    17    22    1
    38     1     5    1
    39     4     6    1
    40    33    34    1
@<TRIPOS>MOLECULE
*****
 37 40 0 0 0
SMALL
GASTEIGER

@<TRIPOS>ATOM
      1 N          63.9398   88.4010   15.2282 N.am    1  UNL1       -0.2681
      2 C          64.7383   89.5658   14.7228 C.2     1  UNL1        0.3082
      3 O          65.4619   89.4672   13.4125 O.2     1  UNL1       -0.2522
      4 N          64.8133   90.8294   15.5277 N.am    1  UNL1       -0.2681
      5 H          63.4649   88.4657   16.0881 H       1  UNL1        0.1564
      6 H          64.3384   90.8941   16.3877 H       1  UNL1        0.1564
      7 C          63.7148   84.6104   12.8135 C.ar    1  UNL1        0.0179
      8 C          62.9367   85.8193   12.3858 C.ar    1  UNL1        0.0028
      9 C          63.0117   87.0829   13.1907 C.ar    1  UNL1        0.0148
     10 C          63.8648   87.1374   14.4233 C.ar    1  UNL1        0.0516
     11 C          64.6428   85.9285   14.8510 C.ar    1  UNL1        0.0148
     12 C          64.5678   84.6649   14.0461 C.ar    1  UNL1        0.0028
     13 C          62.5216   81.8135   13.9859 C.ar    1  UNL1        0.0013
     14 C          62.1038   80.3734   14.0241 C.ar    1  UNL1        0.0963
     15 N          62.4002   79.7691   12.6836 N.ar    1  UNL1       -0.2272
     16 C          63.0011   80.8358   11.8169 C.ar    1  UNL1        0.1428
     17 N          63.4897   80.8197   10.3989 N.ar    1  UNL1       -0.3215
     18 C          64.0533   82.0672    9.7857 C.ar    1  UNL1        0.1760
     19 N          64.1283   83.3308   10.5906 N.ar    1  UNL1       -0.2255
     20 C          63.6397   83.3468   12.0086 C.ar    1  UNL1        0.0856
     21 C          63.0761   82.0993   12.6218 C.ar    1  UNL1        0.0492
     22 H          63.4405   79.9904    9.8706 H       1  UNL1        0.1689
     23 C          61.4534   83.9501   15.0078 C.3     1  UNL1        0.0051
     24 C          62.4052   82.7955   15.1138 C.3     1  UNL1        0.0281
     25 C          65.6119   91.9943   15.0223 C.ar    1  UNL1        0.0517
     26 C          66.5768   92.6938   15.9332 C.ar    1  UNL1        0.0147
     27 C          67.3754   93.8586   15.4278 C.ar    1  UNL1        0.0014
     28 C          67.2091   94.3240   14.0115 C.ar    1  UNL1        0.0046
     29 C          66.2441   93.6244   13.1006 C.ar    1  UNL1        0.0546
     30 C          65.4456   92.4596   13.6060 C.ar    1  UNL1        0.0192
     31 C          66.0778   94.0897   11.6844 C.2     1  UNL1        0.2458
     32 O          65.1047   93.3974   10.7768 O.2     1  UNL1       -0.2701
     33 N          66.8847   95.2474   11.1756 N.am    1  UNL1       -0.3025
     34 H          67.5234   95.7018   11.7713 H       1  UNL1        0.1497
     35 C          66.7183   95.7128    9.7594 C.3     1  UNL1        0.0720
     36 C          65.7648   96.8266    9.4430 C.3     1  UNL1        0.0213
     37 C          67.5056   95.0642    8.6595 C.3     1  UNL1        0.0213
@<TRIPOS>BOND
     1    23    24    1
     2    24    13    1
     3    13    14   ar
     4    14    15   ar
     5    15    16   ar
     6    16    17   ar
     7    17    18   ar
     8    18    19   ar
     9    19    20   ar
    10    20     7    1
    11     7     8   ar
    12     8     9   ar
    13     9    10   ar
    14    10     1    1
    15     1     2   am
    16     2     3    2
    17     2     4   am
    18     4    25    1
    19    25    26   ar
    20    26    27   ar
    21    27    28   ar
    22    28    29   ar
    23    29    31    1
    24    31    32    2
    25    31    33   am
    26    33    35    1
    27    35    36    1
    28    35    37    1
    29    29    30   ar
    30    10    11   ar
    31    11    12   ar
    32    20    21   ar
    33    21    13   ar
    34    21    16    1
    35    12     7   ar
    36    30    25   ar
    37    17    22    1
    38     1     5    1
    39     4     6    1
    40    33    34    1
