@<TRIPOS>MOLECULE
*****
 42 47 0 0 0
SMALL
GASTEIGER

@<TRIPOS>ATOM
      1 C          61.7394   88.4561   11.3382 C.ar    1  UNL1        0.0040
      2 C          61.4306   87.2975   10.4369 C.ar    1  UNL1        0.0719
      3 C          62.1248   86.0861   10.9851 C.ar    1  UNL1        0.1049
      4 N          62.8626   86.4959   12.2251 N.ar    1  UNL1       -0.2242
      5 N          63.7205   85.7245   13.1837 N.ar    1  UNL1       -0.1422
      6 C          64.3403   86.4180   14.3606 C.ar    1  UNL1        0.2211
      7 N          64.1021   87.8828   14.5788 N.ar    1  UNL1       -0.2060
      8 C          63.2441   88.6541   13.6203 C.ar    1  UNL1        0.1515
      9 C          62.6244   87.9607   12.4434 C.ar    1  UNL1        0.1107
     10 C          60.5775   87.3425    9.2040 C.ar    1  UNL1        0.2543
     11 N          60.3450   86.2079    8.2508 N.ar    1  UNL1       -0.1042
     12 N          59.4309   86.6942    7.1655 N.ar    1  UNL1       -0.0714
     13 C          59.0984   88.1293    7.4479 C.ar    1  UNL1        0.4171
     14 O          59.8070   88.5300    8.7078 O.2     1  UNL1       -0.3888
     15 O          58.2127   89.0093    6.6165 O.3     1  UNL1       -0.4363
     16 C          58.8100   90.1147    5.7971 C.3     1  UNL1        0.1734
     17 C          60.2940   90.1749    5.5869 C.3     1  UNL1        0.0608
     18 C          60.8912   91.2803    4.7676 C.3     1  UNL1        0.0723
     19 N          60.0045   92.3255    4.1585 N.3     1  UNL1       -0.2973
     20 C          58.5205   92.2654    4.3687 C.3     1  UNL1        0.0723
     21 C          57.9232   91.1600    5.1880 C.3     1  UNL1        0.0608
     22 H          60.1607   92.2935    3.1510 H       1  UNL1        0.1233
     23 C          59.8976   90.2557   11.6835 C.3     1  UNL1        0.0047
     24 C          61.2493   89.8631   11.1649 C.3     1  UNL1        0.0241
     25 C          62.1106   90.8775   10.4729 C.3     1  UNL1        0.0047
     26 N          63.0060   90.1189   13.8385 N.pl3   1  UNL1       -0.2949
     27 H          62.0871   90.4724   13.8467 H       1  UNL1        0.1537
     28 C          64.1677   91.0452   14.0443 C.ar    1  UNL1        0.0775
     29 C          64.8562   91.6590   12.8613 C.ar    1  UNL1        0.0237
     30 C          66.0179   92.5853   13.0671 C.ar    1  UNL1        0.0821
     31 C          66.4912   92.8978   14.4557 C.ar    1  UNL1        0.1468
     32 F          67.6530   93.8241   14.6614 F       1  UNL1       -0.2039
     33 C          65.8028   92.2840   15.6386 C.ar    1  UNL1        0.0607
     34 C          64.6410   91.3577   15.4329 C.ar    1  UNL1        0.1557
     35 F          63.9526   90.7439   16.6158 F       1  UNL1       -0.2028
     36 C          66.7064   93.1992   11.8842 C.2     1  UNL1        0.2480
     37 O          67.8638   92.4944   11.2410 O.2     1  UNL1       -0.2701
     38 N          66.2374   94.5178   11.3444 N.am    1  UNL1       -0.3024
     39 H          65.4777   94.9803   11.7666 H       1  UNL1        0.1497
     40 C          66.9258   95.1316   10.1616 C.3     1  UNL1        0.0720
     41 C          67.3257   96.3461    9.3773 C.3     1  UNL1        0.0213
     42 C          67.7182   94.9804    8.8970 C.3     1  UNL1        0.0213
@<TRIPOS>BOND
     1    23    24    1
     2    24    25    1
     3    24     1    1
     4     1     2   ar
     5     2    10    1
     6    10    11   ar
     7    11    12   ar
     8    12    13   ar
     9    13    15    1
    10    15    16    1
    11    16    17    1
    12    17    18    1
    13    18    19    1
    14    19    20    1
    15    20    21    1
    16    13    14   ar
    17     2     3   ar
    18     3     4   ar
    19     4     5   ar
    20     5     6   ar
    21     6     7   ar
    22     7     8   ar
    23     8    26    1
    24    26    28    1
    25    28    29   ar
    26    29    30   ar
    27    30    36    1
    28    36    37    2
    29    36    38   am
    30    38    40    1
    31    40    41    1
    32    41    42    1
    33    30    31   ar
    34    31    32    1
    35    31    33   ar
    36    33    34   ar
    37    34    35    1
    38     8     9   ar
    39     9     1   ar
    40    14    10   ar
    41     9     4   ar
    42    21    16    1
    43    34    28   ar
    44    42    40    1
    45    19    22    1
    46    26    27    1
    47    38    39    1
@<TRIPOS>MOLECULE
*****
 42 47 0 0 0
SMALL
GASTEIGER

@<TRIPOS>ATOM
      1 C          61.4217   88.8368   10.5907 C.ar    1  UNL1        0.0040
      2 C          60.9469   87.9222    9.5007 C.ar    1  UNL1        0.0719
      3 C          61.4719   86.5468    9.7882 C.ar    1  UNL1        0.1049
      4 N          62.2712   86.6113   11.0559 N.ar    1  UNL1       -0.2242
      5 N          63.0232   85.5642   11.8227 N.ar    1  UNL1       -0.1422
      6 C          63.7442   85.9325   13.0854 C.ar    1  UNL1        0.2211
      7 N          63.7132   87.3478   13.5813 N.ar    1  UNL1       -0.2060
      8 C          62.9612   88.3949   12.8146 C.ar    1  UNL1        0.1515
      9 C          62.2402   88.0266   11.5518 C.ar    1  UNL1        0.1107
     10 C          60.0964   88.3142    8.3289 C.ar    1  UNL1        0.2543
     11 N          59.1683   87.4112    7.5719 N.ar    1  UNL1       -0.1042
     12 N          58.5230   88.2169    6.4835 N.ar    1  UNL1       -0.0714
     13 C          59.0523   89.6178    6.5679 C.ar    1  UNL1        0.4171
     14 O          60.0247   89.6779    7.7085 O.2     1  UNL1       -0.3888
     15 O          58.6754   90.7584    5.6696 O.3     1  UNL1       -0.4363
     16 C          59.6891   91.3383    4.7283 C.3     1  UNL1        0.1734
     17 C          59.2892   92.4197    3.7687 C.3     1  UNL1        0.0608
     18 C          60.3029   92.9996    2.8274 C.3     1  UNL1        0.0723
     19 N          61.7165   92.4982    2.8457 N.3     1  UNL1       -0.2973
     20 C          62.1164   91.4168    3.8052 C.3     1  UNL1        0.0723
     21 C          61.1026   90.8369    4.7466 C.3     1  UNL1        0.0608
     22 H          62.3117   93.3025    3.0437 H       1  UNL1        0.1233
     23 C          59.8028   90.7673   11.2253 C.3     1  UNL1        0.0047
     24 C          61.1295   90.3039   10.7003 C.3     1  UNL1        0.0241
     25 C          62.1636   91.3078   10.2849 C.3     1  UNL1        0.0047
     26 N          62.9302   89.8102   13.3105 N.pl3   1  UNL1       -0.2949
     27 H          62.0690   90.2421   13.5127 H       1  UNL1        0.1537
     28 C          64.2114   90.5673   13.4983 C.ar    1  UNL1        0.0775
     29 C          64.5919   91.6492   12.5314 C.ar    1  UNL1        0.0237
     30 C          65.8730   92.4063   12.7192 C.ar    1  UNL1        0.0821
     31 C          66.7738   92.0816   13.8739 C.ar    1  UNL1        0.1468
     32 F          68.0550   92.8388   14.0617 F       1  UNL1       -0.2039
     33 C          66.3933   90.9998   14.8407 C.ar    1  UNL1        0.0607
     34 C          65.1121   90.2426   14.6530 C.ar    1  UNL1        0.1557
     35 F          64.7317   89.1607   15.6198 F       1  UNL1       -0.2028
     36 C          66.2535   93.4882   11.7523 C.2     1  UNL1        0.2480
     37 O          66.1359   94.9286   12.1542 O.2     1  UNL1       -0.2701
     38 N          66.7516   93.1297   10.3836 N.am    1  UNL1       -0.3024
     39 H          66.8288   92.1843   10.1199 H       1  UNL1        0.1497
     40 C          67.1321   94.2115    9.4168 C.3     1  UNL1        0.0720
     41 C          67.3990   94.6627    8.0114 C.3     1  UNL1        0.0213
     42 C          67.5242   95.6341    9.1475 C.3     1  UNL1        0.0213
@<TRIPOS>BOND
     1    23    24    1
     2    24    25    1
     3    24     1    1
     4     1     2   ar
     5     2    10    1
     6    10    11   ar
     7    11    12   ar
     8    12    13   ar
     9    13    15    1
    10    15    16    1
    11    16    17    1
    12    17    18    1
    13    18    19    1
    14    19    20    1
    15    20    21    1
    16    13    14   ar
    17     2     3   ar
    18     3     4   ar
    19     4     5   ar
    20     5     6   ar
    21     6     7   ar
    22     7     8   ar
    23     8    26    1
    24    26    28    1
    25    28    29   ar
    26    29    30   ar
    27    30    36    1
    28    36    37    2
    29    36    38   am
    30    38    40    1
    31    40    41    1
    32    41    42    1
    33    30    31   ar
    34    31    32    1
    35    31    33   ar
    36    33    34   ar
    37    34    35    1
    38     8     9   ar
    39     9     1   ar
    40    14    10   ar
    41     9     4   ar
    42    21    16    1
    43    34    28   ar
    44    42    40    1
    45    19    22    1
    46    26    27    1
    47    38    39    1
@<TRIPOS>MOLECULE
*****
 42 47 0 0 0
SMALL
GASTEIGER

@<TRIPOS>ATOM
      1 C          63.4172   89.2394   12.7238 C.ar    1  UNL1        0.0040
      2 C          63.8227   90.4227   11.8959 C.ar    1  UNL1        0.0719
      3 C          63.2747   90.2303   10.5129 C.ar    1  UNL1        0.1049
      4 N          62.5306   88.9282   10.4861 N.ar    1  UNL1       -0.2242
      5 N          61.7843   88.2210    9.3940 N.ar    1  UNL1       -0.1422
      6 C          61.1260   86.9014    9.6683 C.ar    1  UNL1        0.2211
      7 N          61.2141   86.2890   11.0347 N.ar    1  UNL1       -0.2060
      8 C          61.9604   86.9961   12.1269 C.ar    1  UNL1        0.1515
      9 C          62.6187   88.3157   11.8525 C.ar    1  UNL1        0.1107
     10 C          64.6337   91.5929   12.3681 C.ar    1  UNL1        0.2543
     11 N          65.1014   91.8320   13.7731 N.ar    1  UNL1       -0.1042
     12 N          65.8761   93.1163   13.7916 N.ar    1  UNL1       -0.0714
     13 C          65.8873   93.6710   12.3979 C.ar    1  UNL1        0.4171
     14 O          65.1194   92.7294   11.5182 O.2     1  UNL1       -0.3888
     15 O          66.5499   94.9436   11.9607 O.3     1  UNL1       -0.4363
     16 C          66.4326   95.3995   10.5365 C.3     1  UNL1        0.1734
     17 C          67.3650   94.8546    9.4954 C.3     1  UNL1        0.0608
     18 C          67.2477   95.3104    8.0712 C.3     1  UNL1        0.0723
     19 N          66.1980   96.3110    7.6880 N.3     1  UNL1       -0.2973
     20 C          65.2656   96.8559    8.7291 C.3     1  UNL1        0.0723
     21 C          65.3829   96.4001   10.1533 C.3     1  UNL1        0.0608
     22 H          65.6174   95.8702    6.9745 H       1  UNL1        0.1233
     23 C          64.8413   88.0601   14.5491 C.3     1  UNL1        0.0047
     24 C          63.7516   89.0185   14.1693 C.3     1  UNL1        0.0241
     25 C          62.9965   89.7560   15.2350 C.3     1  UNL1        0.0047
     26 N          62.0485   86.3837   13.4933 N.pl3   1  UNL1       -0.2949
     27 H          61.6782   86.8603   14.2711 H       1  UNL1        0.1537
     28 C          62.7008   85.0453   13.6747 C.ar    1  UNL1        0.0775
     29 C          62.6906   84.0479   12.5543 C.ar    1  UNL1        0.0237
     30 C          63.3429   82.7094   12.7356 C.ar    1  UNL1        0.0821
     31 C          64.0055   82.3683   14.0374 C.ar    1  UNL1        0.1468
     32 F          64.6579   81.0297   14.2187 F       1  UNL1       -0.2039
     33 C          64.0158   83.3655   15.1578 C.ar    1  UNL1        0.0607
     34 C          63.3635   84.7041   14.9764 C.ar    1  UNL1        0.1557
     35 F          63.3738   85.7014   16.0968 F       1  UNL1       -0.2028
     36 C          63.3326   81.7121   11.6152 C.2     1  UNL1        0.2480
     37 O          63.8502   82.0992   10.2617 O.2     1  UNL1       -0.2701
     38 N          62.8048   80.3275   11.8485 N.am    1  UNL1       -0.3024
     39 H          62.4650   80.0734   12.7369 H       1  UNL1        0.1497
     40 C          62.7945   79.3302   10.7282 C.3     1  UNL1        0.0720
     41 C          62.7892   79.0266    9.2592 C.3     1  UNL1        0.0213
     42 C          62.7819   77.9063   10.2566 C.3     1  UNL1        0.0213
@<TRIPOS>BOND
     1    23    24    1
     2    24    25    1
     3    24     1    1
     4     1     2   ar
     5     2    10    1
     6    10    11   ar
     7    11    12   ar
     8    12    13   ar
     9    13    15    1
    10    15    16    1
    11    16    17    1
    12    17    18    1
    13    18    19    1
    14    19    20    1
    15    20    21    1
    16    13    14   ar
    17     2     3   ar
    18     3     4   ar
    19     4     5   ar
    20     5     6   ar
    21     6     7   ar
    22     7     8   ar
    23     8    26    1
    24    26    28    1
    25    28    29   ar
    26    29    30   ar
    27    30    36    1
    28    36    37    2
    29    36    38   am
    30    38    40    1
    31    40    41    1
    32    41    42    1
    33    30    31   ar
    34    31    32    1
    35    31    33   ar
    36    33    34   ar
    37    34    35    1
    38     8     9   ar
    39     9     1   ar
    40    14    10   ar
    41     9     4   ar
    42    21    16    1
    43    34    28   ar
    44    42    40    1
    45    19    22    1
    46    26    27    1
    47    38    39    1
@<TRIPOS>MOLECULE
*****
 42 47 0 0 0
SMALL
GASTEIGER

@<TRIPOS>ATOM
      1 C          62.0765   95.5121   -2.8751 C.ar    1  UNL1        0.0040
      2 C          62.0317   95.3202   -4.3621 C.ar    1  UNL1        0.0719
      3 C          63.3834   95.6634   -4.9146 C.ar    1  UNL1        0.1049
      4 N          64.2635   96.0674   -3.7692 N.ar    1  UNL1       -0.2242
      5 N          65.6960   96.5084   -3.7110 N.ar    1  UNL1       -0.1422
      6 C          66.3208   96.8558   -2.3924 C.ar    1  UNL1        0.2211
      7 N          65.5132   96.7623   -1.1319 N.ar    1  UNL1       -0.2060
      8 C          64.0806   96.3214   -1.1900 C.ar    1  UNL1        0.1515
      9 C          63.4558   95.9739   -2.5086 C.ar    1  UNL1        0.1107
     10 C          60.8439   94.8650   -5.1570 C.ar    1  UNL1        0.2543
     11 N          60.8202   94.5988   -6.6330 N.ar    1  UNL1       -0.1042
     12 N          59.4329   94.1653   -7.0037 N.ar    1  UNL1       -0.0714
     13 C          58.5991   94.1636   -5.7568 C.ar    1  UNL1        0.4171
     14 O          59.4712   94.5960   -4.6155 O.2     1  UNL1       -0.3888
     15 O          57.1481   93.7944   -5.6669 O.3     1  UNL1       -0.4363
     16 C          56.6186   93.1291   -4.4311 C.3     1  UNL1        0.1734
     17 C          56.2110   93.9578   -3.2492 C.3     1  UNL1        0.0608
     18 C          55.6816   93.2926   -2.0135 C.3     1  UNL1        0.0723
     19 N          55.5596   91.7985   -1.9597 N.3     1  UNL1       -0.2973
     20 C          55.9672   90.9698   -3.1416 C.3     1  UNL1        0.0723
     21 C          56.4967   91.6351   -4.3774 C.3     1  UNL1        0.0608
     22 H          54.5780   91.5896   -1.7780 H       1  UNL1        0.1233
     23 C          60.1999   96.4511   -1.3432 C.3     1  UNL1        0.0047
     24 C          60.9413   95.2825   -1.9219 C.3     1  UNL1        0.0241
     25 C          60.5475   93.8845   -1.5473 C.3     1  UNL1        0.0047
     26 N          63.2730   96.2279    0.0705 N.pl3   1  UNL1       -0.2949
     27 H          62.8006   97.0211    0.4124 H       1  UNL1        0.1537
     28 C          63.1850   94.9258    0.8100 C.ar    1  UNL1        0.0775
     29 C          61.8881   94.5044    1.4350 C.ar    1  UNL1        0.0237
     30 C          61.8001   93.2024    2.1746 C.ar    1  UNL1        0.0821
     31 C          63.0090   92.3217    2.2892 C.ar    1  UNL1        0.1468
     32 F          62.9210   91.0197    3.0288 F       1  UNL1       -0.2039
     33 C          64.3058   92.7431    1.6642 C.ar    1  UNL1        0.0607
     34 C          64.3939   94.0452    0.9247 C.ar    1  UNL1        0.1557
     35 F          65.6907   94.4666    0.2997 F       1  UNL1       -0.2028
     36 C          60.5032   92.7809    2.7995 C.2     1  UNL1        0.2480
     37 O          59.2048   93.0957    2.1176 O.2     1  UNL1       -0.2701
     38 N          60.5048   92.0446    4.1064 N.am    1  UNL1       -0.3024
     39 H          61.3570   91.8380    4.5539 H       1  UNL1        0.1497
     40 C          59.2080   91.6232    4.7314 C.3     1  UNL1        0.0720
     41 C          57.7156   91.7373    4.8293 C.3     1  UNL1        0.0213
     42 C          58.4543   90.7792    5.7160 C.3     1  UNL1        0.0213
@<TRIPOS>BOND
     1    23    24    1
     2    24    25    1
     3    24     1    1
     4     1     2   ar
     5     2    10    1
     6    10    11   ar
     7    11    12   ar
     8    12    13   ar
     9    13    15    1
    10    15    16    1
    11    16    17    1
    12    17    18    1
    13    18    19    1
    14    19    20    1
    15    20    21    1
    16    13    14   ar
    17     2     3   ar
    18     3     4   ar
    19     4     5   ar
    20     5     6   ar
    21     6     7   ar
    22     7     8   ar
    23     8    26    1
    24    26    28    1
    25    28    29   ar
    26    29    30   ar
    27    30    36    1
    28    36    37    2
    29    36    38   am
    30    38    40    1
    31    40    41    1
    32    41    42    1
    33    30    31   ar
    34    31    32    1
    35    31    33   ar
    36    33    34   ar
    37    34    35    1
    38     8     9   ar
    39     9     1   ar
    40    14    10   ar
    41     9     4   ar
    42    21    16    1
    43    34    28   ar
    44    42    40    1
    45    19    22    1
    46    26    27    1
    47    38    39    1
