@<TRIPOS>MOLECULE
*****
 43 46 0 0 0
SMALL
GASTEIGER

@<TRIPOS>ATOM
      1 C          61.0747   87.5846    9.5431 C.3     1  UNL1        0.0781
      2 C          60.0116   87.7072   10.5942 C.3     1  UNL1        0.0372
      3 C          60.2580   88.5409   11.8165 C.3     1  UNL1        0.0738
      4 N          61.5676   89.2520   11.9878 N.3     1  UNL1       -0.2725
      5 C          62.6307   89.1294   10.9367 C.3     1  UNL1        0.0738
      6 C          62.3843   88.2957    9.7144 C.3     1  UNL1        0.0372
      7 N          60.8282   86.7509    8.3207 N.am    1  UNL1       -0.2808
      8 C          61.8396   85.7287    7.8936 C.2     1  UNL1        0.2300
      9 O          61.5932   84.8950    6.6713 O.2     1  UNL1       -0.2745
     10 C          59.0844   88.3221    7.2073 C.3     1  UNL1        0.0233
     11 C          59.5704   86.9392    7.5255 C.3     1  UNL1        0.0934
     12 C          63.0974   85.5404    8.6888 C.3     1  UNL1        0.1116
     13 C          63.1428   84.5238    9.7910 C.ar    1  UNL1       -0.0130
     14 C          62.4441   84.7946   11.0903 C.ar    1  UNL1       -0.0025
     15 C          62.4895   83.7780   12.1923 C.ar    1  UNL1        0.0180
     16 C          63.2337   82.4907   11.9950 C.ar    1  UNL1        0.1057
     17 C          63.9325   82.2199   10.6956 C.ar    1  UNL1        0.0180
     18 C          63.8870   83.2364    9.5936 C.ar    1  UNL1       -0.0025
     19 S          63.2791   81.4741   13.0971 S.O2    1  UNL1        0.0104
     20 C          63.3246   80.4576   14.1992 C.3     1  UNL1        0.1816
     21 O          63.7575   82.5289   14.0503 O.2     1  UNL1       -0.1686
     22 O          62.8008   80.4193   12.1439 O.2     1  UNL1       -0.1686
     23 C          61.8140   90.0857   13.2102 C.3     1  UNL1        0.0728
     24 C          63.1136   90.8176   13.3694 C.3     1  UNL1        0.0261
     25 C          64.1460   90.3119   14.3330 C.3     1  UNL1        0.0461
     26 C          63.9693   88.9741   14.9878 C.ar    1  UNL1       -0.0139
     27 C          63.3443   88.8815   16.3482 C.ar    1  UNL1        0.0258
     28 C          63.1675   87.5436   17.0030 C.ar    1  UNL1        0.1421
     29 F          62.5425   87.4510   18.3634 F       1  UNL1       -0.2041
     30 C          63.6158   86.2982   16.2973 C.ar    1  UNL1        0.0592
     31 C          64.2408   86.3907   14.9368 C.ar    1  UNL1        0.1421
     32 F          64.6891   85.1452   14.2312 F       1  UNL1       -0.2041
     33 C          64.4175   87.7286   14.2821 C.ar    1  UNL1        0.0258
     34 C          65.3551   91.1442   14.6419 C.ar    1  UNL1       -0.0183
     35 C          66.4905   91.2094   13.6638 C.ar    1  UNL1       -0.0026
     36 C          67.6996   92.0416   13.9726 C.ar    1  UNL1        0.0180
     37 C          67.7733   92.8087   15.2595 C.ar    1  UNL1        0.1057
     38 C          66.6379   92.7436   16.2376 C.ar    1  UNL1        0.0180
     39 C          65.4287   91.9113   15.9288 C.ar    1  UNL1       -0.0026
     40 S          68.9824   93.6410   15.5684 S.O2    1  UNL1        0.0104
     41 C          70.1915   94.4733   15.8773 C.3     1  UNL1        0.1816
     42 O          69.7880   92.8315   14.5959 O.2     1  UNL1       -0.1686
     43 O          68.1768   94.4504   16.5409 O.2     1  UNL1       -0.1686
@<TRIPOS>BOND
     1    10    11    1
     2    11     7    1
     3     7     8   am
     4     8     9    2
     5     8    12    1
     6    12    13    1
     7    13    14   ar
     8    14    15   ar
     9    15    16   ar
    10    16    19    1
    11    19    20    1
    12    19    21    2
    13    19    22    2
    14    16    17   ar
    15    17    18   ar
    16     7     1    1
    17     1     2    1
    18     2     3    1
    19     3     4    1
    20     4    23    1
    21    23    24    1
    22    25    24    1
    23    25    34    1
    24    34    35   ar
    25    35    36   ar
    26    36    37   ar
    27    37    40    1
    28    40    41    1
    29    40    42    2
    30    40    43    2
    31    37    38   ar
    32    38    39   ar
    33    25    26    1
    34    26    27   ar
    35    27    28   ar
    36    28    29    1
    37    28    30   ar
    38    30    31   ar
    39    31    32    1
    40    31    33   ar
    41     4     5    1
    42     5     6    1
    43    18    13   ar
    44     6     1    1
    45    39    34   ar
    46    33    26   ar
@<TRIPOS>MOLECULE
*****
 43 46 0 0 0
SMALL
GASTEIGER

@<TRIPOS>ATOM
      1 C          61.0792   87.5796    9.5367 C.3     1  UNL1        0.0781
      2 C          62.3824   88.3050    9.6957 C.3     1  UNL1        0.0372
      3 C          62.6308   89.1424   10.9152 C.3     1  UNL1        0.0738
      4 N          61.5760   89.2544   11.9757 N.3     1  UNL1       -0.2725
      5 C          60.2727   88.5289   11.8168 C.3     1  UNL1        0.0738
      6 C          60.0243   87.6916   10.5973 C.3     1  UNL1        0.0372
      7 N          60.8308   86.7422    8.3173 N.am    1  UNL1       -0.2808
      8 C          61.8391   85.7153    7.8945 C.2     1  UNL1        0.2300
      9 O          61.5907   84.8779    6.6750 O.2     1  UNL1       -0.2745
     10 C          59.0231   88.3102    7.3056 C.3     1  UNL1        0.0233
     11 C          59.5741   86.9317    7.5206 C.3     1  UNL1        0.0934
     12 C          63.0958   85.5258    8.6912 C.3     1  UNL1        0.1116
     13 C          63.1399   84.5072    9.7915 C.ar    1  UNL1       -0.0130
     14 C          63.8849   83.2206    9.5932 C.ar    1  UNL1       -0.0025
     15 C          63.9289   82.2021   10.6935 C.ar    1  UNL1        0.0180
     16 C          63.2280   82.4704   11.9922 C.ar    1  UNL1        0.1057
     17 C          62.4830   83.7570   12.1906 C.ar    1  UNL1        0.0180
     18 C          62.4389   84.7755   11.0903 C.ar    1  UNL1       -0.0025
     19 S          63.2720   81.4518   13.0926 S.O2    1  UNL1        0.0104
     20 C          63.3161   80.4333   14.1929 C.3     1  UNL1        0.1816
     21 O          62.7803   80.4022   12.1406 O.2     1  UNL1       -0.1686
     22 O          63.7638   82.5015   14.0446 O.2     1  UNL1       -0.1686
     23 C          61.8244   90.0917   13.1951 C.3     1  UNL1        0.0728
     24 C          63.1267   90.8192   13.3528 C.3     1  UNL1        0.0261
     25 C          64.1560   90.3135   14.3197 C.3     1  UNL1        0.0461
     26 C          63.9729   88.9794   14.9804 C.ar    1  UNL1       -0.0139
     27 C          64.4198   87.7292   14.2823 C.ar    1  UNL1        0.0258
     28 C          64.2367   86.3950   14.9431 C.ar    1  UNL1        0.1421
     29 F          64.6835   85.1448   14.2450 F       1  UNL1       -0.2041
     30 C          63.6068   86.3111   16.3018 C.ar    1  UNL1        0.0592
     31 C          63.1600   87.5613   16.9998 C.ar    1  UNL1        0.1421
     32 F          62.5300   87.4774   18.3586 F       1  UNL1       -0.2041
     33 C          63.3430   88.8955   16.3391 C.ar    1  UNL1        0.0258
     34 C          65.3684   91.1420   14.6258 C.ar    1  UNL1       -0.0183
     35 C          65.4498   91.9043   15.9152 C.ar    1  UNL1       -0.0026
     36 C          66.6622   92.7327   16.2214 C.ar    1  UNL1        0.0180
     37 C          67.7932   92.7989   15.2382 C.ar    1  UNL1        0.1057
     38 C          67.7117   92.0367   13.9489 C.ar    1  UNL1        0.0180
     39 C          66.4993   91.2082   13.6427 C.ar    1  UNL1       -0.0026
     40 S          69.0055   93.6274   15.5444 S.O2    1  UNL1        0.0104
     41 C          70.2180   94.4559   15.8506 C.3     1  UNL1        0.1816
     42 O          69.8054   92.8179   14.5672 O.2     1  UNL1       -0.1686
     43 O          68.2056   94.4368   16.5215 O.2     1  UNL1       -0.1686
@<TRIPOS>BOND
     1    10    11    1
     2    11     7    1
     3     7     8   am
     4     8     9    2
     5     8    12    1
     6    12    13    1
     7    13    14   ar
     8    14    15   ar
     9    15    16   ar
    10    16    19    1
    11    19    20    1
    12    19    21    2
    13    19    22    2
    14    16    17   ar
    15    17    18   ar
    16     7     1    1
    17     1     2    1
    18     2     3    1
    19     3     4    1
    20     4    23    1
    21    23    24    1
    22    25    24    1
    23    25    34    1
    24    34    35   ar
    25    35    36   ar
    26    36    37   ar
    27    37    40    1
    28    40    41    1
    29    40    42    2
    30    40    43    2
    31    37    38   ar
    32    38    39   ar
    33    25    26    1
    34    26    27   ar
    35    27    28   ar
    36    28    29    1
    37    28    30   ar
    38    30    31   ar
    39    31    32    1
    40    31    33   ar
    41     4     5    1
    42     5     6    1
    43    18    13   ar
    44     6     1    1
    45    39    34   ar
    46    33    26   ar
@<TRIPOS>MOLECULE
*****
 43 46 0 0 0
SMALL
GASTEIGER

@<TRIPOS>ATOM
      1 C          63.2345   84.2114   14.2797 C.3     1  UNL1        0.0781
      2 C          62.3793   84.5062   15.4762 C.3     1  UNL1        0.0372
      3 C          62.5168   85.8175   16.1915 C.3     1  UNL1        0.0738
      4 N          63.5094   86.8339   15.7104 N.3     1  UNL1       -0.2725
      5 C          64.3647   86.5390   14.5138 C.3     1  UNL1        0.0738
      6 C          64.2272   85.2278   13.7985 C.3     1  UNL1        0.0372
      7 N          63.0971   82.9001   13.5644 N.am    1  UNL1       -0.2808
      8 C          63.4261   82.8043   12.1040 C.2     1  UNL1        0.2300
      9 O          63.2887   81.4931   11.3886 O.2     1  UNL1       -0.2745
     10 C          61.2272   81.1870   14.1287 C.3     1  UNL1        0.0233
     11 C          62.6306   81.6846   14.3093 C.3     1  UNL1        0.0934
     12 C          63.8926   84.0198   11.3590 C.3     1  UNL1        0.1116
     13 C          62.9244   84.8063   10.5258 C.ar    1  UNL1       -0.0130
     14 C          61.8307   85.5912   11.1872 C.ar    1  UNL1       -0.0025
     15 C          60.8626   86.3776   10.3540 C.ar    1  UNL1        0.0180
     16 C          60.9883   86.3790    8.8592 C.ar    1  UNL1        0.1057
     17 C          62.0820   85.5941    8.1978 C.ar    1  UNL1        0.0180
     18 C          63.0501   84.8077    9.0310 C.ar    1  UNL1       -0.0025
     19 S          60.0201   87.1655    8.0260 S.O2    1  UNL1        0.0104
     20 C          59.0520   87.9519    7.1928 C.3     1  UNL1        0.1816
     21 O          60.4996   88.4342    8.6665 O.2     1  UNL1       -0.1686
     22 O          59.5407   85.8967    7.3854 O.2     1  UNL1       -0.1686
     23 C          63.6468   88.1451   16.4257 C.3     1  UNL1        0.0728
     24 C          62.9125   89.3533   15.9248 C.3     1  UNL1        0.0261
     25 C          63.4837   90.1656   14.8006 C.3     1  UNL1        0.0461
     26 C          62.7861   90.2042   13.4733 C.ar    1  UNL1       -0.0139
     27 C          63.4382   90.8780   12.3025 C.ar    1  UNL1        0.0258
     28 C          62.7404   90.9166   10.9752 C.ar    1  UNL1        0.1421
     29 F          63.3925   91.5904    9.8044 F       1  UNL1       -0.2041
     30 C          61.3907   90.2813   10.8187 C.ar    1  UNL1        0.0592
     31 C          60.7386   89.6075   11.9894 C.ar    1  UNL1        0.1421
     32 F          59.3887   88.9722   11.8329 F       1  UNL1       -0.2041
     33 C          61.4362   89.5689   13.3167 C.ar    1  UNL1        0.0258
     34 C          64.7526   90.9392   15.0036 C.ar    1  UNL1       -0.0183
     35 C          65.9574   90.6384   14.1621 C.ar    1  UNL1       -0.0026
     36 C          67.2263   91.4120   14.3651 C.ar    1  UNL1        0.0180
     37 C          67.2905   92.4866   15.4097 C.ar    1  UNL1        0.1057
     38 C          66.0859   92.7875   16.2512 C.ar    1  UNL1        0.0180
     39 C          64.8169   92.0138   16.0482 C.ar    1  UNL1       -0.0026
     40 S          68.5594   93.2603   15.6127 S.O2    1  UNL1        0.0104
     41 C          69.8284   94.0340   15.8158 C.3     1  UNL1        0.1816
     42 O          69.1740   92.5609   14.4367 O.2     1  UNL1       -0.1686
     43 O          67.9448   93.9596   16.7888 O.2     1  UNL1       -0.1686
@<TRIPOS>BOND
     1    10    11    1
     2    11     7    1
     3     7     8   am
     4     8     9    2
     5     8    12    1
     6    12    13    1
     7    13    14   ar
     8    14    15   ar
     9    15    16   ar
    10    16    19    1
    11    19    20    1
    12    19    21    2
    13    19    22    2
    14    16    17   ar
    15    17    18   ar
    16     7     1    1
    17     1     2    1
    18     2     3    1
    19     3     4    1
    20     4    23    1
    21    23    24    1
    22    25    24    1
    23    25    34    1
    24    34    35   ar
    25    35    36   ar
    26    36    37   ar
    27    37    40    1
    28    40    41    1
    29    40    42    2
    30    40    43    2
    31    37    38   ar
    32    38    39   ar
    33    25    26    1
    34    26    27   ar
    35    27    28   ar
    36    28    29    1
    37    28    30   ar
    38    30    31   ar
    39    31    32    1
    40    31    33   ar
    41     4     5    1
    42     5     6    1
    43    18    13   ar
    44     6     1    1
    45    39    34   ar
    46    33    26   ar
@<TRIPOS>MOLECULE
*****
 43 46 0 0 0
SMALL
GASTEIGER

@<TRIPOS>ATOM
      1 C          60.9537   87.8033   10.6114 C.3     1  UNL1        0.0781
      2 C          60.8580   87.2147    9.2351 C.3     1  UNL1        0.0372
      3 C          61.7180   86.0450    8.8582 C.3     1  UNL1        0.0738
      4 N          62.6738   85.4639    9.8575 N.3     1  UNL1       -0.2725
      5 C          62.7696   86.0525   11.2340 C.3     1  UNL1        0.0738
      6 C          61.9095   87.2222   11.6109 C.3     1  UNL1        0.0372
      7 N          60.0937   88.9730   10.9884 N.am    1  UNL1       -0.2808
      8 C          60.5945   90.3711   10.7770 C.2     1  UNL1        0.2300
      9 O          59.7345   91.5409   11.1539 O.2     1  UNL1       -0.2745
     10 C          58.5084   88.9435   13.0464 C.3     1  UNL1        0.0233
     11 C          58.7330   88.7447   11.5767 C.3     1  UNL1        0.0934
     12 C          61.9552   90.5994   10.1886 C.3     1  UNL1        0.1116
     13 C          63.0833   91.0595   11.0638 C.ar    1  UNL1       -0.0130
     14 C          64.1333   91.9782   10.5130 C.ar    1  UNL1       -0.0025
     15 C          65.2612   92.4382   11.3883 C.ar    1  UNL1        0.0180
     16 C          65.3391   91.9796   12.8143 C.ar    1  UNL1        0.1057
     17 C          64.2891   91.0610   13.3651 C.ar    1  UNL1        0.0180
     18 C          63.1611   90.6009   12.4899 C.ar    1  UNL1       -0.0025
     19 S          66.4671   92.4397   13.6896 S.O2    1  UNL1        0.0104
     20 C          67.5951   92.8998   14.5647 C.3     1  UNL1        0.1816
     21 O          67.4094   92.3418   12.5266 O.2     1  UNL1       -0.1686
     22 O          65.5249   92.5376   14.8525 O.2     1  UNL1       -0.1686
     23 C          63.5338   84.2941    9.4806 C.3     1  UNL1        0.0728
     24 C          64.4092   83.6441   10.5106 C.3     1  UNL1        0.0261
     25 C          63.7939   82.9794   11.7063 C.3     1  UNL1        0.0461
     26 C          63.3661   81.5438   11.6291 C.ar    1  UNL1       -0.0139
     27 C          63.3089   80.8487   10.3011 C.ar    1  UNL1        0.0258
     28 C          62.8811   79.4130   10.2239 C.ar    1  UNL1        0.1421
     29 F          62.8240   78.7178    8.8960 F       1  UNL1       -0.2041
     30 C          62.5105   78.6725   11.4747 C.ar    1  UNL1        0.0592
     31 C          62.5677   79.3677   12.8026 C.ar    1  UNL1        0.1421
     32 F          62.1971   78.6272   14.0534 F       1  UNL1       -0.2041
     33 C          62.9955   80.8033   12.8799 C.ar    1  UNL1        0.0258
     34 C          63.6063   83.7504   12.9792 C.ar    1  UNL1       -0.0183
     35 C          62.2753   83.7437   13.6710 C.ar    1  UNL1       -0.0026
     36 C          62.0877   84.5146   14.9439 C.ar    1  UNL1        0.0180
     37 C          63.2311   85.2924   15.5251 C.ar    1  UNL1        0.1057
     38 C          64.5620   85.2992   14.8334 C.ar    1  UNL1        0.0180
     39 C          64.7497   84.5282   13.5604 C.ar    1  UNL1       -0.0026
     40 S          63.0435   86.0634   16.7980 S.O2    1  UNL1        0.0104
     41 C          62.8560   86.8344   18.0711 C.3     1  UNL1        0.1816
     42 O          63.6615   87.2709   16.1577 O.2     1  UNL1       -0.1686
     43 O          62.4256   84.8559   17.4384 O.2     1  UNL1       -0.1686
@<TRIPOS>BOND
     1    10    11    1
     2    11     7    1
     3     7     8   am
     4     8     9    2
     5     8    12    1
     6    12    13    1
     7    13    14   ar
     8    14    15   ar
     9    15    16   ar
    10    16    19    1
    11    19    20    1
    12    19    21    2
    13    19    22    2
    14    16    17   ar
    15    17    18   ar
    16     7     1    1
    17     1     2    1
    18     2     3    1
    19     3     4    1
    20     4    23    1
    21    23    24    1
    22    25    24    1
    23    25    34    1
    24    34    35   ar
    25    35    36   ar
    26    36    37   ar
    27    37    40    1
    28    40    41    1
    29    40    42    2
    30    40    43    2
    31    37    38   ar
    32    38    39   ar
    33    25    26    1
    34    26    27   ar
    35    27    28   ar
    36    28    29    1
    37    28    30   ar
    38    30    31   ar
    39    31    32    1
    40    31    33   ar
    41     4     5    1
    42     5     6    1
    43    18    13   ar
    44     6     1    1
    45    39    34   ar
    46    33    26   ar
@<TRIPOS>MOLECULE
*****
 43 46 0 0 0
SMALL
GASTEIGER

@<TRIPOS>ATOM
      1 C          61.0025   87.8336   10.6075 C.3     1  UNL1        0.0781
      2 C          60.9104   87.2590    9.2250 C.3     1  UNL1        0.0372
      3 C          61.7598   86.0831    8.8434 C.3     1  UNL1        0.0738
      4 N          62.7014   85.4818    9.8442 N.3     1  UNL1       -0.2725
      5 C          62.7936   86.0563   11.2268 C.3     1  UNL1        0.0738
      6 C          61.9441   87.2323   11.6084 C.3     1  UNL1        0.0372
      7 N          60.1530   89.0095   10.9891 N.am    1  UNL1       -0.2808
      8 C          60.6708   90.4037   10.7937 C.2     1  UNL1        0.2300
      9 O          59.8214   91.5796   11.1753 O.2     1  UNL1       -0.2745
     10 C          58.5643   88.9295   13.0432 C.3     1  UNL1        0.0233
     11 C          58.7858   88.7913   11.5662 C.3     1  UNL1        0.0934
     12 C          62.0381   90.6220   10.2167 C.3     1  UNL1        0.1116
     13 C          63.1585   91.0883   11.0983 C.ar    1  UNL1       -0.0130
     14 C          63.2549   90.5967   12.5121 C.ar    1  UNL1       -0.0025
     15 C          64.3753   91.0631   13.3936 C.ar    1  UNL1        0.0180
     16 C          65.3994   92.0211   12.8612 C.ar    1  UNL1        0.1057
     17 C          65.3030   92.5128   11.4474 C.ar    1  UNL1        0.0180
     18 C          64.1826   92.0464   10.5659 C.ar    1  UNL1       -0.0025
     19 S          66.5199   92.4875   13.7428 S.O2    1  UNL1        0.0104
     20 C          67.6403   92.9539   14.6243 C.3     1  UNL1        0.1816
     21 O          67.4908   92.2799   12.6185 O.2     1  UNL1       -0.1686
     22 O          65.5489   92.6951   14.8671 O.2     1  UNL1       -0.1686
     23 C          63.5509   84.3059    9.4626 C.3     1  UNL1        0.0728
     24 C          64.4196   83.6432   10.4902 C.3     1  UNL1        0.0261
     25 C          63.7976   82.9829   11.6849 C.3     1  UNL1        0.0461
     26 C          63.3673   81.5479   11.6095 C.ar    1  UNL1       -0.0139
     27 C          63.0017   80.8078   12.8619 C.ar    1  UNL1        0.0258
     28 C          62.5714   79.3727   12.7864 C.ar    1  UNL1        0.1421
     29 F          62.2057   78.6326   14.0388 F       1  UNL1       -0.2041
     30 C          62.5068   78.6780   11.4586 C.ar    1  UNL1        0.0592
     31 C          62.8724   79.4181   10.2062 C.ar    1  UNL1        0.1421
     32 F          62.8078   78.7233    8.8784 F       1  UNL1       -0.2041
     33 C          63.3027   80.8531   10.2816 C.ar    1  UNL1        0.0258
     34 C          63.6059   83.7576   12.9550 C.ar    1  UNL1       -0.0183
     35 C          64.7466   84.5395   13.5360 C.ar    1  UNL1       -0.0026
     36 C          64.5549   85.3142   14.8060 C.ar    1  UNL1        0.0180
     37 C          63.2226   85.3069   15.4952 C.ar    1  UNL1        0.1057
     38 C          62.0820   84.5250   14.9142 C.ar    1  UNL1        0.0180
     39 C          62.2736   83.7503   13.6441 C.ar    1  UNL1       -0.0026
     40 S          63.0310   86.0816   16.7652 S.O2    1  UNL1        0.0104
     41 C          62.8393   86.8563   18.0354 C.3     1  UNL1        0.1816
     42 O          62.4368   84.8677   17.4160 O.2     1  UNL1       -0.1686
     43 O          63.6251   87.2954   16.1145 O.2     1  UNL1       -0.1686
@<TRIPOS>BOND
     1    10    11    1
     2    11     7    1
     3     7     8   am
     4     8     9    2
     5     8    12    1
     6    12    13    1
     7    13    14   ar
     8    14    15   ar
     9    15    16   ar
    10    16    19    1
    11    19    20    1
    12    19    21    2
    13    19    22    2
    14    16    17   ar
    15    17    18   ar
    16     7     1    1
    17     1     2    1
    18     2     3    1
    19     3     4    1
    20     4    23    1
    21    23    24    1
    22    25    24    1
    23    25    34    1
    24    34    35   ar
    25    35    36   ar
    26    36    37   ar
    27    37    40    1
    28    40    41    1
    29    40    42    2
    30    40    43    2
    31    37    38   ar
    32    38    39   ar
    33    25    26    1
    34    26    27   ar
    35    27    28   ar
    36    28    29    1
    37    28    30   ar
    38    30    31   ar
    39    31    32    1
    40    31    33   ar
    41     4     5    1
    42     5     6    1
    43    18    13   ar
    44     6     1    1
    45    39    34   ar
    46    33    26   ar
@<TRIPOS>MOLECULE
*****
 43 46 0 0 0
SMALL
GASTEIGER

@<TRIPOS>ATOM
      1 C          64.8115   91.0132   14.0175 C.3     1  UNL1        0.0781
      2 C          64.1175   91.6883   12.8719 C.3     1  UNL1        0.0372
      3 C          63.2380   90.8925   11.9537 C.3     1  UNL1        0.0738
      4 N          63.0525   89.4215   12.1811 N.3     1  UNL1       -0.2725
      5 C          63.7464   88.7463   13.3268 C.3     1  UNL1        0.0738
      6 C          64.6259   89.5421   14.2450 C.3     1  UNL1        0.0372
      7 N          65.6910   91.8090   14.9357 N.am    1  UNL1       -0.2808
      8 C          67.0287   92.2932   14.4600 C.2     1  UNL1        0.2300
      9 O          67.9082   93.0890   15.3782 O.2     1  UNL1       -0.2745
     10 C          63.8473   91.7460   16.7650 C.3     1  UNL1        0.0233
     11 C          65.2329   92.1207   16.3296 C.3     1  UNL1        0.0934
     12 C          67.4868   91.9815   13.0661 C.3     1  UNL1        0.1116
     13 C          67.2062   92.9451   11.9513 C.ar    1  UNL1       -0.0130
     14 C          66.4230   94.1958   12.2203 C.ar    1  UNL1       -0.0025
     15 C          66.1424   95.1593   11.1055 C.ar    1  UNL1        0.0180
     16 C          66.6450   94.8722    9.7217 C.ar    1  UNL1        0.1057
     17 C          67.4281   93.6215    9.4527 C.ar    1  UNL1        0.0180
     18 C          67.7087   92.6580   10.5675 C.ar    1  UNL1       -0.0025
     19 S          66.3643   95.8358    8.6069 S.O2    1  UNL1        0.0104
     20 C          66.0837   96.7994    7.4921 C.3     1  UNL1        0.1816
     21 O          65.5196   96.6604    9.5323 O.2     1  UNL1       -0.1686
     22 O          67.2090   95.0112    7.6814 O.2     1  UNL1       -0.1686
     23 C          62.1730   88.6257   11.2629 C.3     1  UNL1        0.0728
     24 C          61.5554   87.3445   11.7396 C.3     1  UNL1        0.0261
     25 C          62.1204   86.0284   11.2941 C.3     1  UNL1        0.0461
     26 C          62.7655   85.1128   12.2918 C.ar    1  UNL1       -0.0139
     27 C          63.4951   85.6837   13.4716 C.ar    1  UNL1        0.0258
     28 C          64.1402   84.7681   14.4694 C.ar    1  UNL1        0.1421
     29 F          64.8697   85.3390   15.6491 F       1  UNL1       -0.2041
     30 C          64.0556   83.2816   14.2874 C.ar    1  UNL1        0.0592
     31 C          63.3261   82.7107   13.1077 C.ar    1  UNL1        0.1421
     32 F          63.2416   81.2241   12.9258 F       1  UNL1       -0.2041
     33 C          62.6810   83.6262   12.1099 C.ar    1  UNL1        0.0258
     34 C          62.0404   85.6277    9.8508 C.ar    1  UNL1       -0.0183
     35 C          63.1771   84.8838    9.2147 C.ar    1  UNL1       -0.0026
     36 C          63.0970   84.4832    7.7715 C.ar    1  UNL1        0.0180
     37 C          61.8803   84.8265    6.9642 C.ar    1  UNL1        0.1057
     38 C          60.7436   85.5704    7.6002 C.ar    1  UNL1        0.0180
     39 C          60.8236   85.9710    9.0435 C.ar    1  UNL1       -0.0026
     40 S          61.8002   84.4258    5.5210 S.O2    1  UNL1        0.0104
     41 C          61.7202   84.0252    4.0776 C.3     1  UNL1        0.1816
     42 O          60.3706   84.0152    5.7142 O.2     1  UNL1       -0.1686
     43 O          63.2299   84.8365    5.3277 O.2     1  UNL1       -0.1686
@<TRIPOS>BOND
     1    10    11    1
     2    11     7    1
     3     7     8   am
     4     8     9    2
     5     8    12    1
     6    12    13    1
     7    13    14   ar
     8    14    15   ar
     9    15    16   ar
    10    16    19    1
    11    19    20    1
    12    19    21    2
    13    19    22    2
    14    16    17   ar
    15    17    18   ar
    16     7     1    1
    17     1     2    1
    18     2     3    1
    19     3     4    1
    20     4    23    1
    21    23    24    1
    22    25    24    1
    23    25    34    1
    24    34    35   ar
    25    35    36   ar
    26    36    37   ar
    27    37    40    1
    28    40    41    1
    29    40    42    2
    30    40    43    2
    31    37    38   ar
    32    38    39   ar
    33    25    26    1
    34    26    27   ar
    35    27    28   ar
    36    28    29    1
    37    28    30   ar
    38    30    31   ar
    39    31    32    1
    40    31    33   ar
    41     4     5    1
    42     5     6    1
    43    18    13   ar
    44     6     1    1
    45    39    34   ar
    46    33    26   ar
@<TRIPOS>MOLECULE
*****
 43 46 0 0 0
SMALL
GASTEIGER

@<TRIPOS>ATOM
      1 C          65.0962   91.1317   14.3437 C.3     1  UNL1        0.0781
      2 C          64.3074   91.6793   13.1914 C.3     1  UNL1        0.0372
      3 C          63.3858   90.7821   12.4196 C.3     1  UNL1        0.0738
      4 N          63.2529   89.3373   12.8002 N.3     1  UNL1       -0.2725
      5 C          64.0417   88.7896   13.9526 C.3     1  UNL1        0.0738
      6 C          64.9634   89.6868   14.7243 C.3     1  UNL1        0.0372
      7 N          66.0179   92.0288   15.1154 N.am    1  UNL1       -0.2808
      8 C          67.2742   92.5421   14.4762 C.2     1  UNL1        0.2300
      9 O          68.1958   93.4393   15.2479 O.2     1  UNL1       -0.2745
     10 C          64.2647   92.3382   17.0076 C.3     1  UNL1        0.0233
     11 C          65.6834   92.4128   16.5263 C.3     1  UNL1        0.0934
     12 C          67.6086   92.1581   13.0653 C.3     1  UNL1        0.1116
     13 C          67.2865   93.0928   11.9372 C.ar    1  UNL1       -0.0130
     14 C          67.7816   92.7961   10.5527 C.ar    1  UNL1       -0.0025
     15 C          67.4594   93.7308    9.4247 C.ar    1  UNL1        0.0180
     16 C          66.6422   94.9622    9.6811 C.ar    1  UNL1        0.1057
     17 C          66.1470   95.2589   11.0656 C.ar    1  UNL1        0.0180
     18 C          66.4692   94.3242   12.1936 C.ar    1  UNL1       -0.0025
     19 S          66.3200   95.8969    8.5530 S.O2    1  UNL1        0.0104
     20 C          65.9979   96.8316    7.4249 C.3     1  UNL1        0.1816
     21 O          67.1240   95.0441    7.6169 O.2     1  UNL1       -0.1686
     22 O          65.5160   96.7497    9.4891 O.2     1  UNL1       -0.1686
     23 C          62.3312   88.4401   12.0285 C.3     1  UNL1        0.0728
     24 C          62.7999   87.7994   10.7558 C.3     1  UNL1        0.0261
     25 C          62.2230   86.4848   10.3212 C.3     1  UNL1        0.0461
     26 C          61.3471   86.4152    9.1055 C.ar    1  UNL1       -0.0139
     27 C          61.5803   85.3525    8.0729 C.ar    1  UNL1        0.0258
     28 C          60.7044   85.2830    6.8572 C.ar    1  UNL1        0.1421
     29 F          60.9376   84.2203    5.8246 F       1  UNL1       -0.2041
     30 C          59.5954   86.2762    6.6740 C.ar    1  UNL1        0.0592
     31 C          59.3622   87.3390    7.7066 C.ar    1  UNL1        0.1421
     32 F          58.2531   88.3322    7.5234 F       1  UNL1       -0.2041
     33 C          60.2381   87.4085    8.9223 C.ar    1  UNL1        0.0258
     34 C          62.5219   85.2396   11.1024 C.ar    1  UNL1       -0.0183
     35 C          63.1774   84.0707   10.4285 C.ar    1  UNL1       -0.0026
     36 C          63.4763   82.8256   11.2097 C.ar    1  UNL1        0.0180
     37 C          63.1198   82.7493   12.6647 C.ar    1  UNL1        0.1057
     38 C          62.4643   83.9181   13.3386 C.ar    1  UNL1        0.0180
     39 C          62.1653   85.1634   12.5574 C.ar    1  UNL1       -0.0026
     40 S          63.4187   81.5042   13.4459 S.O2    1  UNL1        0.0104
     41 C          63.7177   80.2590   14.2271 C.3     1  UNL1        0.1816
     42 O          62.9755   80.6678   12.2823 O.2     1  UNL1       -0.1686
     43 O          63.8619   82.3406   14.6094 O.2     1  UNL1       -0.1686
@<TRIPOS>BOND
     1    10    11    1
     2    11     7    1
     3     7     8   am
     4     8     9    2
     5     8    12    1
     6    12    13    1
     7    13    14   ar
     8    14    15   ar
     9    15    16   ar
    10    16    19    1
    11    19    20    1
    12    19    21    2
    13    19    22    2
    14    16    17   ar
    15    17    18   ar
    16     7     1    1
    17     1     2    1
    18     2     3    1
    19     3     4    1
    20     4    23    1
    21    23    24    1
    22    25    24    1
    23    25    34    1
    24    34    35   ar
    25    35    36   ar
    26    36    37   ar
    27    37    40    1
    28    40    41    1
    29    40    42    2
    30    40    43    2
    31    37    38   ar
    32    38    39   ar
    33    25    26    1
    34    26    27   ar
    35    27    28   ar
    36    28    29    1
    37    28    30   ar
    38    30    31   ar
    39    31    32    1
    40    31    33   ar
    41     4     5    1
    42     5     6    1
    43    18    13   ar
    44     6     1    1
    45    39    34   ar
    46    33    26   ar
@<TRIPOS>MOLECULE
*****
 43 46 0 0 0
SMALL
GASTEIGER

@<TRIPOS>ATOM
      1 C          61.0470   88.6539    9.4091 C.3     1  UNL1        0.0781
      2 C          60.2068   89.6129   10.1991 C.3     1  UNL1        0.0372
      3 C          60.8622   90.6282   11.0877 C.3     1  UNL1        0.0738
      4 N          62.3579   90.6845   11.1862 N.3     1  UNL1       -0.2725
      5 C          63.1982   89.7254   10.3961 C.3     1  UNL1        0.0738
      6 C          62.5428   88.7101    9.5075 C.3     1  UNL1        0.0372
      7 N          60.3915   87.6385    8.5205 N.am    1  UNL1       -0.2808
      8 C          61.1175   86.3759    8.1617 C.2     1  UNL1        0.2300
      9 O          60.4621   85.3606    7.2731 O.2     1  UNL1       -0.2745
     10 C          58.7971   88.8777    6.8859 C.3     1  UNL1        0.0233
     11 C          59.0102   87.8858    7.9908 C.3     1  UNL1        0.0934
     12 C          62.4989   86.1286    8.6914 C.3     1  UNL1        0.1116
     13 C          62.7308   85.0486    9.7064 C.ar    1  UNL1       -0.0130
     14 C          63.5938   83.8705    9.3641 C.ar    1  UNL1       -0.0025
     15 C          63.8257   82.7907   10.3790 C.ar    1  UNL1        0.0180
     16 C          63.1945   82.8889   11.7362 C.ar    1  UNL1        0.1057
     17 C          62.3314   84.0670   12.0785 C.ar    1  UNL1        0.0180
     18 C          62.0996   85.1469   11.0635 C.ar    1  UNL1       -0.0025
     19 S          63.4264   81.8090   12.7512 S.O2    1  UNL1        0.0104
     20 C          63.6582   80.7291   13.7661 C.3     1  UNL1        0.1816
     21 O          61.9463   81.5880   12.8540 O.2     1  UNL1       -0.1686
     22 O          64.9064   82.0300   12.6483 O.2     1  UNL1       -0.1686
     23 C          63.0133   91.6998   12.0747 C.3     1  UNL1        0.0728
     24 C          63.1613   91.4279   13.5424 C.3     1  UNL1        0.0261
     25 C          64.2935   90.5773   14.0371 C.3     1  UNL1        0.0461
     26 C          65.6801   91.1443   14.1128 C.ar    1  UNL1       -0.0139
     27 C          66.2812   91.4805   15.4453 C.ar    1  UNL1        0.0258
     28 C          67.6679   92.0475   15.5209 C.ar    1  UNL1        0.1421
     29 F          68.2691   92.3837   16.8534 F       1  UNL1       -0.2041
     30 C          68.4534   92.2783   14.2641 C.ar    1  UNL1        0.0592
     31 C          67.8522   91.9421   12.9315 C.ar    1  UNL1        0.1421
     32 F          68.6378   92.1730   11.6746 F       1  UNL1       -0.2041
     33 C          66.4656   91.3751   12.8559 C.ar    1  UNL1        0.0258
     34 C          64.0390   89.1597   14.4562 C.ar    1  UNL1       -0.0183
     35 C          63.6793   88.8515   15.8795 C.ar    1  UNL1       -0.0026
     36 C          63.4248   87.4339   16.2986 C.ar    1  UNL1        0.0180
     37 C          63.5300   86.3245   15.2945 C.ar    1  UNL1        0.1057
     38 C          63.8897   86.6327   13.8713 C.ar    1  UNL1        0.0180
     39 C          64.1442   88.0504   13.4521 C.ar    1  UNL1       -0.0026
     40 S          63.2756   84.9069   15.7136 S.O2    1  UNL1        0.0104
     41 C          63.0211   83.4893   16.1327 C.3     1  UNL1        0.1816
     42 O          64.5149   84.4706   14.9900 O.2     1  UNL1       -0.1686
     43 O          62.0363   85.3433   16.4372 O.2     1  UNL1       -0.1686
@<TRIPOS>BOND
     1    10    11    1
     2    11     7    1
     3     7     8   am
     4     8     9    2
     5     8    12    1
     6    12    13    1
     7    13    14   ar
     8    14    15   ar
     9    15    16   ar
    10    16    19    1
    11    19    20    1
    12    19    21    2
    13    19    22    2
    14    16    17   ar
    15    17    18   ar
    16     7     1    1
    17     1     2    1
    18     2     3    1
    19     3     4    1
    20     4    23    1
    21    23    24    1
    22    25    24    1
    23    25    34    1
    24    34    35   ar
    25    35    36   ar
    26    36    37   ar
    27    37    40    1
    28    40    41    1
    29    40    42    2
    30    40    43    2
    31    37    38   ar
    32    38    39   ar
    33    25    26    1
    34    26    27   ar
    35    27    28   ar
    36    28    29    1
    37    28    30   ar
    38    30    31   ar
    39    31    32    1
    40    31    33   ar
    41     4     5    1
    42     5     6    1
    43    18    13   ar
    44     6     1    1
    45    39    34   ar
    46    33    26   ar
@<TRIPOS>MOLECULE
*****
 43 46 0 0 0
SMALL
GASTEIGER

@<TRIPOS>ATOM
      1 C          64.7991   91.0075   14.0234 C.3     1  UNL1        0.0781
      2 C          64.1697   91.6934   12.8472 C.3     1  UNL1        0.0372
      3 C          63.3543   90.9037   11.8666 C.3     1  UNL1        0.0738
      4 N          63.1682   89.4283   12.0622 N.3     1  UNL1       -0.2725
      5 C          63.7976   88.7423   13.2384 C.3     1  UNL1        0.0738
      6 C          64.6130   89.5320   14.2190 C.3     1  UNL1        0.0372
      7 N          65.6145   91.7972   15.0040 N.am    1  UNL1       -0.2808
      8 C          66.9788   92.2890   14.6207 C.2     1  UNL1        0.2300
      9 O          67.7942   93.0786   15.6013 O.2     1  UNL1       -0.2745
     10 C          63.7688   91.4809   16.8048 C.3     1  UNL1        0.0233
     11 C          65.0656   92.0951   16.3678 C.3     1  UNL1        0.0934
     12 C          67.5277   91.9911   13.2569 C.3     1  UNL1        0.1116
     13 C          67.2574   92.9295   12.1182 C.ar    1  UNL1       -0.0130
     14 C          66.4860   94.1939   12.3553 C.ar    1  UNL1       -0.0025
     15 C          66.2157   95.1322   11.2167 C.ar    1  UNL1        0.0180
     16 C          66.7168   94.8061    9.8410 C.ar    1  UNL1        0.1057
     17 C          67.4882   93.5417    9.6039 C.ar    1  UNL1        0.0180
     18 C          67.7585   92.6034   10.7425 C.ar    1  UNL1       -0.0025
     19 S          66.4465   95.7445    8.7023 S.O2    1  UNL1        0.0104
     20 C          66.1762   96.6828    7.5638 C.3     1  UNL1        0.1816
     21 O          65.5616   96.5675    9.5907 O.2     1  UNL1       -0.1686
     22 O          67.3315   94.9214    7.8139 O.2     1  UNL1       -0.1686
     23 C          62.3528   88.6386   11.0816 C.3     1  UNL1        0.0728
     24 C          61.5559   87.4568   11.5487 C.3     1  UNL1        0.0261
     25 C          61.7021   86.1333   10.8581 C.3     1  UNL1        0.0461
     26 C          61.3615   86.0050    9.4030 C.ar    1  UNL1       -0.0139
     27 C          60.0876   86.5959    8.8759 C.ar    1  UNL1        0.0258
     28 C          59.7471   86.4675    7.4206 C.ar    1  UNL1        0.1421
     29 F          58.4731   87.0585    6.8935 F       1  UNL1       -0.2041
     30 C          60.6805   85.7482    6.4926 C.ar    1  UNL1        0.0592
     31 C          61.9544   85.1573    7.0197 C.ar    1  UNL1        0.1421
     32 F          62.8878   84.4379    6.0915 F       1  UNL1       -0.2041
     33 C          62.2949   85.2856    8.4748 C.ar    1  UNL1        0.0258
     34 C          62.1888   84.9381   11.6227 C.ar    1  UNL1       -0.0183
     35 C          62.6753   85.0970   13.0327 C.ar    1  UNL1       -0.0026
     36 C          63.1621   83.9018   13.7973 C.ar    1  UNL1        0.0180
     37 C          63.1624   82.5478   13.1518 C.ar    1  UNL1        0.1057
     38 C          62.6760   82.3889   11.7419 C.ar    1  UNL1        0.0180
     39 C          62.1892   83.5841   10.9772 C.ar    1  UNL1       -0.0026
     40 S          63.6492   81.3526   13.9164 S.O2    1  UNL1        0.0104
     41 C          64.1360   80.1573   14.6809 C.3     1  UNL1        0.1816
     42 O          64.0688   82.2460   15.0458 O.2     1  UNL1       -0.1686
     43 O          63.2296   80.4592   12.7869 O.2     1  UNL1       -0.1686
@<TRIPOS>BOND
     1    10    11    1
     2    11     7    1
     3     7     8   am
     4     8     9    2
     5     8    12    1
     6    12    13    1
     7    13    14   ar
     8    14    15   ar
     9    15    16   ar
    10    16    19    1
    11    19    20    1
    12    19    21    2
    13    19    22    2
    14    16    17   ar
    15    17    18   ar
    16     7     1    1
    17     1     2    1
    18     2     3    1
    19     3     4    1
    20     4    23    1
    21    23    24    1
    22    25    24    1
    23    25    34    1
    24    34    35   ar
    25    35    36   ar
    26    36    37   ar
    27    37    40    1
    28    40    41    1
    29    40    42    2
    30    40    43    2
    31    37    38   ar
    32    38    39   ar
    33    25    26    1
    34    26    27   ar
    35    27    28   ar
    36    28    29    1
    37    28    30   ar
    38    30    31   ar
    39    31    32    1
    40    31    33   ar
    41     4     5    1
    42     5     6    1
    43    18    13   ar
    44     6     1    1
    45    39    34   ar
    46    33    26   ar
