@<TRIPOS>MOLECULE
*****
 37 41 0 0 0
SMALL
GASTEIGER

@<TRIPOS>ATOM
      1 C          64.3767   90.8422   13.8377 C.3     1  UNL1        0.1225
      2 O          63.7929   91.7341   12.7825 O.3     1  UNL1       -0.3559
      3 C          62.9859   91.1442   11.6643 C.3     1  UNL1        0.1441
      4 C          62.7625   89.6622   11.6013 C.3     1  UNL1        0.0589
      5 C          63.3462   88.7703   12.6565 C.3     1  UNL1        0.1466
      6 C          63.1228   87.2883   12.5935 C.ar    1  UNL1        0.0618
      7 C          62.3158   86.6984   11.4753 C.ar    1  UNL1        0.1407
      8 F          61.6054   87.2744   10.2863 F       1  UNL1       -0.2043
      9 C          62.0924   85.2164   11.4123 C.ar    1  UNL1        0.0319
     10 C          62.6761   84.3245   12.4676 C.ar    1  UNL1        0.0351
     11 C          63.4832   84.9144   13.5858 C.ar    1  UNL1        0.1737
     12 F          64.0670   84.0224   14.6411 F       1  UNL1       -0.2010
     13 C          63.7066   86.3964   13.6488 C.ar    1  UNL1        0.1655
     14 O          64.5137   86.9863   14.7671 O.3     1  UNL1       -0.4732
     15 C          64.7371   88.4682   14.8301 C.3     1  UNL1        0.2098
     16 C          64.1533   89.3602   13.7748 C.3     1  UNL1        0.0957
     17 S          62.5391   88.1803   11.5383 S.O2    1  UNL1        0.0094
     18 O          62.9303   87.8292   10.9390 O.2     1  UNL1       -0.1684
     19 O          61.1182   88.4591   11.9299 O.2     1  UNL1       -0.1684
     20 C          61.7319   87.5903   10.4200 C.ar    1  UNL1        0.1059
     21 C          60.2348   87.6773   10.4487 C.ar    1  UNL1        0.0192
     22 C          59.4276   87.0873    9.3305 C.ar    1  UNL1        0.0127
     23 C          60.1177   86.4104    8.1835 C.ar    1  UNL1        0.0578
     24 CL         59.3106   85.8204    7.0652 Cl      1  UNL1       -0.0822
     25 C          61.6149   86.3234    8.1548 C.ar    1  UNL1        0.0127
     26 C          62.4220   86.9134    9.2730 C.ar    1  UNL1        0.0192
     27 C          65.1838   91.4321   14.9561 C.3     1  UNL1        0.0550
     28 C          66.4148   92.2330   14.6510 C.3     1  UNL1        0.1533
     29 O          67.3504   91.6660   12.8336 O.2     1  UNL1       -0.1730
     30 S          66.5823   92.8664   13.3017 S.O2    1  UNL1       -0.0102
     31 O          65.8142   94.0667   13.7697 O.2     1  UNL1       -0.1730
     32 C          66.7497   93.4998   11.9523 C.3     1  UNL1        0.1461
     33 C          67.2393   92.8141   10.7112 C.3     1  UNL1        0.0420
     34 C          67.2492   93.8206    9.5989 C.3     1  UNL1        0.0704
     35 N          66.7657   95.1282   10.1527 N.3     1  UNL1       -0.2960
     36 C          66.4570   94.9299   11.6071 C.3     1  UNL1        0.0924
     37 H          65.9244   95.4239    9.6575 H       1  UNL1        0.1233
@<TRIPOS>BOND
     1    29    30    2
     2    30    31    2
     3    30    28    1
     4    28    27    1
     5     1    27    1
     6     1     2    1
     7     2     3    1
     8     3     4    1
     9     4     5    1
    10     5    17    1
    11    17    18    2
    12    17    19    2
    13    17    20    1
    14    20    21   ar
    15    21    22   ar
    16    22    23   ar
    17    23    24    1
    18    23    25   ar
    19    25    26   ar
    20     5     6    1
    21     6     7   ar
    22     7     8    1
    23     7     9   ar
    24     9    10   ar
    25    10    11   ar
    26    11    12    1
    27    11    13   ar
    28    13    14    1
    29    14    15    1
    30    16    15    1
    31    32    30    1
    32    32    33    1
    33    33    34    1
    34    34    35    1
    35    35    36    1
    36    16     1    1
    37    36    32    1
    38    16     5    1
    39    26    20   ar
    40    13     6   ar
    41    35    37    1
@<TRIPOS>MOLECULE
*****
 37 41 0 0 0
SMALL
GASTEIGER

@<TRIPOS>ATOM
      1 C          64.2198   88.9985   14.3310 C.3     1  UNL1        0.1225
      2 O          64.8346   87.9851   15.2501 O.3     1  UNL1       -0.3559
      3 C          64.7191   86.5224   14.9386 C.3     1  UNL1        0.1441
      4 C          63.9888   86.0732   13.7078 C.3     1  UNL1        0.0589
      5 C          63.3739   87.0866   12.7887 C.3     1  UNL1        0.1466
      6 C          62.6436   86.6373   11.5579 C.ar    1  UNL1        0.0618
      7 C          62.5280   85.1746   11.2463 C.ar    1  UNL1        0.1407
      8 F          63.0065   83.9241   11.9227 F       1  UNL1       -0.2043
      9 C          61.7977   84.7253   10.0156 C.ar    1  UNL1        0.0319
     10 C          61.1828   85.7387    9.0964 C.ar    1  UNL1        0.0351
     11 C          61.2983   87.2014    9.4080 C.ar    1  UNL1        0.1737
     12 F          60.6835   88.2149    8.4888 F       1  UNL1       -0.2010
     13 C          62.0287   87.6507   10.6388 C.ar    1  UNL1        0.1655
     14 O          62.1442   89.1135   10.9503 O.3     1  UNL1       -0.4732
     15 C          62.8746   89.5628   12.1811 C.3     1  UNL1        0.2098
     16 C          63.4894   88.5493   13.1002 C.3     1  UNL1        0.0957
     17 S          63.2584   85.6239   12.4771 S.O2    1  UNL1        0.0094
     18 O          63.8042   85.2995   11.9950 O.2     1  UNL1       -0.1684
     19 O          62.0420   85.1857   13.2378 O.2     1  UNL1       -0.1684
     20 C          63.1429   84.1611   12.1655 C.ar    1  UNL1        0.1059
     21 C          62.1994   83.2992   12.9509 C.ar    1  UNL1        0.0192
     22 C          62.0838   81.8364   12.6394 C.ar    1  UNL1        0.0127
     23 C          62.9118   81.2356   11.5423 C.ar    1  UNL1        0.0578
     24 CL         62.7963   79.7729   11.2307 Cl      1  UNL1       -0.0822
     25 C          63.8553   82.0976   10.7569 C.ar    1  UNL1        0.0127
     26 C          63.9708   83.5603   11.0685 C.ar    1  UNL1        0.0192
     27 C          64.3353   90.4613   14.6425 C.3     1  UNL1        0.0550
     28 C          65.6747   91.1349   14.5947 C.3     1  UNL1        0.1533
     29 O          67.4799   91.7234   13.6487 O.2     1  UNL1       -0.1730
     30 S          66.0255   92.0254   13.4398 S.O2    1  UNL1       -0.0102
     31 O          64.5712   92.3273   13.2308 O.2     1  UNL1       -0.1730
     32 C          66.3764   92.9159   12.2848 C.3     1  UNL1        0.1461
     33 C          66.8535   92.4641   10.9364 C.3     1  UNL1        0.0420
     34 C          67.0836   93.6836   10.0936 C.3     1  UNL1        0.0704
     35 N          66.7488   94.8890   10.9213 N.3     1  UNL1       -0.2960
     36 C          66.3117   94.4145   12.2755 C.3     1  UNL1        0.0924
     37 H          65.9948   95.4143   10.4786 H       1  UNL1        0.1233
@<TRIPOS>BOND
     1    29    30    2
     2    30    31    2
     3    30    28    1
     4    28    27    1
     5     1    27    1
     6     1     2    1
     7     2     3    1
     8     3     4    1
     9     4     5    1
    10     5    17    1
    11    17    18    2
    12    17    19    2
    13    17    20    1
    14    20    21   ar
    15    21    22   ar
    16    22    23   ar
    17    23    24    1
    18    23    25   ar
    19    25    26   ar
    20     5     6    1
    21     6     7   ar
    22     7     8    1
    23     7     9   ar
    24     9    10   ar
    25    10    11   ar
    26    11    12    1
    27    11    13   ar
    28    13    14    1
    29    14    15    1
    30    16    15    1
    31    32    30    1
    32    32    33    1
    33    33    34    1
    34    34    35    1
    35    35    36    1
    36    16     1    1
    37    36    32    1
    38    16     5    1
    39    26    20   ar
    40    13     6   ar
    41    35    37    1
@<TRIPOS>MOLECULE
*****
 37 41 0 0 0
SMALL
GASTEIGER

@<TRIPOS>ATOM
      1 C          62.3368   89.3353   11.6102 C.3     1  UNL1        0.1225
      2 O          62.1724   89.6526   10.1534 O.3     1  UNL1       -0.3559
      3 C          62.9583   90.7713    9.5363 C.3     1  UNL1        0.1441
      4 C          63.9085   91.5727   10.3759 C.3     1  UNL1        0.0589
      5 C          64.0728   91.2553   11.8327 C.3     1  UNL1        0.1466
      6 C          65.0230   92.0567   12.6723 C.ar    1  UNL1        0.0618
      7 C          65.8089   93.1754   12.0552 C.ar    1  UNL1        0.1407
      8 F          65.8920   93.7516   10.6726 F       1  UNL1       -0.2043
      9 C          66.7591   93.9767   12.8948 C.ar    1  UNL1        0.0319
     10 C          66.9234   93.6594   14.3515 C.ar    1  UNL1        0.0351
     11 C          66.1376   92.5407   14.9687 C.ar    1  UNL1        0.1737
     12 F          66.3019   92.2233   16.4255 F       1  UNL1       -0.2010
     13 C          65.1874   91.7393   14.1291 C.ar    1  UNL1        0.1655
     14 O          64.4015   90.6206   14.7463 O.3     1  UNL1       -0.4732
     15 C          63.4513   89.8192   13.9067 C.3     1  UNL1        0.2098
     16 C          63.2870   90.1366   12.4498 C.3     1  UNL1        0.0957
     17 S          64.8587   92.3740   11.2155 S.O2    1  UNL1        0.0094
     18 O          64.4599   93.0154   10.9605 O.2     1  UNL1       -0.1684
     19 O          66.2792   91.8957   11.2751 O.2     1  UNL1       -0.1684
     20 C          65.6446   93.4927   10.5984 C.ar    1  UNL1        0.1059
     21 C          65.1353   94.9012   10.6800 C.ar    1  UNL1        0.0192
     22 C          65.9213   96.0200   10.0629 C.ar    1  UNL1        0.0127
     23 C          67.2165   95.7301    9.3640 C.ar    1  UNL1        0.0578
     24 CL         68.0024   96.8487    8.7469 Cl      1  UNL1       -0.0822
     25 C          67.7258   94.3215    9.2824 C.ar    1  UNL1        0.0127
     26 C          66.9399   93.2029    9.8995 C.ar    1  UNL1        0.0192
     27 C          61.5509   88.2165   12.2274 C.3     1  UNL1        0.0550
     28 C          61.0712   87.0784   11.3763 C.3     1  UNL1        0.1533
     29 O          61.4161   85.6774    9.8213 O.2     1  UNL1       -0.1730
     30 S          61.9144   85.8470   11.2259 S.O2    1  UNL1       -0.0102
     31 O          62.4127   86.0166   12.6304 O.2     1  UNL1       -0.1730
     32 C          62.7577   84.6156   11.0754 C.3     1  UNL1        0.1461
     33 C          63.4365   84.1602    9.8177 C.3     1  UNL1        0.0420
     34 C          64.1686   82.8866   10.1213 C.3     1  UNL1        0.0704
     35 N          63.9421   82.5549   11.5666 N.3     1  UNL1       -0.2960
     36 C          63.0701   83.6235   12.1562 C.3     1  UNL1        0.0924
     37 H          64.8349   82.5258   12.0590 H       1  UNL1        0.1233
@<TRIPOS>BOND
     1    29    30    2
     2    30    31    2
     3    30    28    1
     4    28    27    1
     5     1    27    1
     6     1     2    1
     7     2     3    1
     8     3     4    1
     9     4     5    1
    10     5    17    1
    11    17    18    2
    12    17    19    2
    13    17    20    1
    14    20    21   ar
    15    21    22   ar
    16    22    23   ar
    17    23    24    1
    18    23    25   ar
    19    25    26   ar
    20     5     6    1
    21     6     7   ar
    22     7     8    1
    23     7     9   ar
    24     9    10   ar
    25    10    11   ar
    26    11    12    1
    27    11    13   ar
    28    13    14    1
    29    14    15    1
    30    16    15    1
    31    32    30    1
    32    32    33    1
    33    33    34    1
    34    34    35    1
    35    35    36    1
    36    16     1    1
    37    36    32    1
    38    16     5    1
    39    26    20   ar
    40    13     6   ar
    41    35    37    1
