@<TRIPOS>MOLECULE
*****
 39 42 0 0 0
SMALL
GASTEIGER

@<TRIPOS>ATOM
      1 C          64.2532   88.9925   14.2604 C.ar    1  UNL1        0.0611
      2 C          64.8916   88.0184   15.2055 C.ar    1  UNL1        0.1037
      3 N          64.5654   86.6326   14.7331 N.ar    1  UNL1       -0.2269
      4 C          63.7254   86.7503   13.4960 C.ar    1  UNL1        0.1407
      5 N          63.1113   85.7178   12.5978 N.ar    1  UNL1       -0.3374
      6 C          62.3042   86.1439   11.4074 C.ar    1  UNL1        0.0734
      7 C          62.1112   87.6024   11.1152 C.ar    1  UNL1        0.0171
      8 C          62.7253   88.6349   12.0134 C.ar    1  UNL1        0.0046
      9 C          63.5324   88.2089   13.2038 C.ar    1  UNL1        0.0386
     10 H          63.2379   84.7605   12.7896 H       1  UNL1        0.1674
     11 C          61.3041   88.0285    9.9248 C.ar    1  UNL1        0.0014
     12 C          61.1429   89.4863    9.6108 C.ar    1  UNL1       -0.0003
     13 C          60.3357   89.9124    8.4203 C.ar    1  UNL1       -0.0043
     14 C          59.6899   88.8805    7.5439 C.ar    1  UNL1       -0.0221
     15 C          59.8511   87.4226    7.8580 C.ar    1  UNL1       -0.0043
     16 C          60.6582   86.9966    9.0484 C.ar    1  UNL1       -0.0003
     17 C          58.8828   89.3065    6.3535 C.3     1  UNL1        0.0289
     18 C          59.3107   90.4941    5.5434 C.3     1  UNL1        0.0367
     19 C          58.2901   91.4863    5.0700 C.3     1  UNL1        0.1426
     20 O          58.7299   92.7440    4.3812 O.3     1  UNL1       -0.3511
     21 C          59.8600   92.7035    3.3958 C.3     1  UNL1        0.1741
     22 C          64.3232   90.4879   14.3551 C.2     1  UNL1        0.2015
     23 O          63.3429   91.2319   15.2125 O.2     1  UNL1       -0.2864
     24 C          66.0739   92.6640   11.5355 C.ar    1  UNL1        0.0920
     25 C          67.4745   92.7423   12.0666 C.ar    1  UNL1        0.0204
     26 C          67.8247   92.0691   13.3604 C.ar    1  UNL1        0.0312
     27 C          66.7744   91.3176   14.1233 C.ar    1  UNL1        0.1454
     28 F          67.1246   90.6444   15.4172 F       1  UNL1       -0.2040
     29 C          65.3737   91.2394   13.5922 C.ar    1  UNL1        0.0951
     30 C          65.0235   91.9126   12.2983 C.ar    1  UNL1        0.1598
     31 F          63.6228   91.8343   11.7673 F       1  UNL1       -0.2026
     32 N          65.7237   93.3372   10.2416 N.pl3   1  UNL1       -0.2166
     33 H          65.0454   92.9408    9.6483 H       1  UNL1        0.1734
     34 S          66.4069   94.6144    9.8517 S.O2    1  UNL1        0.0540
     35 O          67.2675   93.8584    8.8833 O.2     1  UNL1       -0.1545
     36 O          65.5463   95.3704   10.8202 O.2     1  UNL1       -0.1545
     37 C          67.0900   95.8916    9.4619 C.3     1  UNL1        0.1724
     38 C          65.7165   96.7105    7.4143 C.3     1  UNL1        0.0019
     39 C          67.0356   96.3677    8.0405 C.3     1  UNL1        0.0273
@<TRIPOS>BOND
     1    38    39    1
     2    39    37    1
     3    37    34    1
     4    34    35    2
     5    34    36    2
     6    34    32    1
     7    32    24    1
     8    24    25   ar
     9    25    26   ar
    10    26    27   ar
    11    27    28    1
    12    27    29   ar
    13    29    22    1
    14    22    23    2
    15    22     1    1
    16     1     2   ar
    17     2     3   ar
    18     3     4   ar
    19     4     5   ar
    20     5     6   ar
    21     6     7   ar
    22     7    11    1
    23    11    12   ar
    24    12    13   ar
    25    13    14   ar
    26    14    17    1
    27    17    18    1
    28    18    19    1
    29    19    20    1
    30    20    21    1
    31    14    15   ar
    32    15    16   ar
    33     7     8   ar
    34     8     9   ar
    35    29    30   ar
    36    30    31    1
    37    30    24   ar
    38     9     1   ar
    39     9     4    1
    40    16    11   ar
    41    32    33    1
    42     5    10    1
@<TRIPOS>MOLECULE
*****
 39 42 0 0 0
SMALL
GASTEIGER

@<TRIPOS>ATOM
      1 C          62.6105   90.1356   11.8353 C.ar    1  UNL1        0.0611
      2 C          62.0282   91.0780   10.8239 C.ar    1  UNL1        0.1037
      3 N          61.4316   90.2596    9.7174 N.ar    1  UNL1       -0.2269
      4 C          61.6452   88.8114   10.0449 C.ar    1  UNL1        0.1407
      5 N          61.2705   87.5527    9.3203 N.ar    1  UNL1       -0.3374
      6 C          61.6242   86.2173    9.9047 C.ar    1  UNL1        0.0734
      7 C          62.3528   86.1407   11.2136 C.ar    1  UNL1        0.0171
      8 C          62.7276   87.3994   11.9382 C.ar    1  UNL1        0.0046
      9 C          62.3738   88.7348   11.3538 C.ar    1  UNL1        0.0386
     10 H          60.7923   87.6030    8.4612 H       1  UNL1        0.1674
     11 C          62.7066   84.8052   11.7980 C.ar    1  UNL1        0.0014
     12 C          62.8008   84.6387   13.2857 C.ar    1  UNL1       -0.0003
     13 C          63.1545   83.3032   13.8700 C.ar    1  UNL1       -0.0043
     14 C          63.4142   82.1343   12.9666 C.ar    1  UNL1       -0.0221
     15 C          63.3200   82.3008   11.4788 C.ar    1  UNL1       -0.0043
     16 C          62.9662   83.6363   10.8945 C.ar    1  UNL1       -0.0003
     17 C          63.7679   80.7988   13.5509 C.3     1  UNL1        0.0289
     18 C          62.6825   79.8539   13.9736 C.3     1  UNL1        0.0367
     19 C          61.2777   80.0606   13.4899 C.3     1  UNL1        0.1426
     20 O          60.2245   80.5579   14.4351 O.3     1  UNL1       -0.3511
     21 C          58.8792   79.8957   14.4747 C.3     1  UNL1        0.1741
     22 C          63.3071   90.5255   13.1052 C.2     1  UNL1        0.2015
     23 O          62.7505   90.0932   14.4292 O.2     1  UNL1       -0.2864
     24 C          66.3166   92.6852   11.6807 C.ar    1  UNL1        0.0920
     25 C          67.0672   92.9924   12.9426 C.ar    1  UNL1        0.0204
     26 C          66.5644   92.4773   14.2586 C.ar    1  UNL1        0.0312
     27 C          65.3111   91.6551   14.3128 C.ar    1  UNL1        0.1454
     28 F          64.8084   91.1400   15.6288 F       1  UNL1       -0.2040
     29 C          64.5606   91.3479   13.0510 C.ar    1  UNL1        0.0951
     30 C          65.0633   91.8630   11.7350 C.ar    1  UNL1        0.1598
     31 F          64.3126   91.5557   10.4731 F       1  UNL1       -0.2026
     32 N          66.8194   93.2003   10.3647 N.pl3   1  UNL1       -0.2166
     33 H          67.0580   92.5692    9.6478 H       1  UNL1        0.1734
     34 S          66.9585   94.6770   10.1410 S.O2    1  UNL1        0.0540
     35 O          68.3536   94.4683    9.6310 O.2     1  UNL1       -0.1545
     36 O          65.5634   94.8857   10.6510 O.2     1  UNL1       -0.1545
     37 C          67.0975   96.1537    9.9173 C.3     1  UNL1        0.1724
     38 C          66.1645   96.6772    7.5496 C.3     1  UNL1        0.0019
     39 C          67.3000   96.6863    8.5297 C.3     1  UNL1        0.0273
@<TRIPOS>BOND
     1    38    39    1
     2    39    37    1
     3    37    34    1
     4    34    35    2
     5    34    36    2
     6    34    32    1
     7    32    24    1
     8    24    25   ar
     9    25    26   ar
    10    26    27   ar
    11    27    28    1
    12    27    29   ar
    13    29    22    1
    14    22    23    2
    15    22     1    1
    16     1     2   ar
    17     2     3   ar
    18     3     4   ar
    19     4     5   ar
    20     5     6   ar
    21     6     7   ar
    22     7    11    1
    23    11    12   ar
    24    12    13   ar
    25    13    14   ar
    26    14    17    1
    27    17    18    1
    28    18    19    1
    29    19    20    1
    30    20    21    1
    31    14    15   ar
    32    15    16   ar
    33     7     8   ar
    34     8     9   ar
    35    29    30   ar
    36    30    31    1
    37    30    24   ar
    38     9     1   ar
    39     9     4    1
    40    16    11   ar
    41    32    33    1
    42     5    10    1
@<TRIPOS>MOLECULE
*****
 39 42 0 0 0
SMALL
GASTEIGER

@<TRIPOS>ATOM
      1 C          64.3948   90.7387   14.9879 C.ar    1  UNL1        0.0611
      2 C          64.0360   91.5376   16.2057 C.ar    1  UNL1        0.1037
      3 N          63.4492   90.5999   17.2188 N.ar    1  UNL1       -0.2269
      4 C          63.4453   89.2215   16.6272 C.ar    1  UNL1        0.1407
      5 N          62.9851   87.8994   17.1658 N.ar    1  UNL1       -0.3374
      6 C          63.1093   86.6631   16.3257 C.ar    1  UNL1        0.0734
      7 C          63.6938   86.7488   14.9469 C.ar    1  UNL1        0.0171
      8 C          64.1540   88.0709   14.4083 C.ar    1  UNL1        0.0046
      9 C          64.0297   89.3073   15.2484 C.ar    1  UNL1        0.0386
     10 H          62.6015   87.8432   18.0708 H       1  UNL1        0.1674
     11 C          63.8180   85.5123   14.1067 C.ar    1  UNL1        0.0014
     12 C          64.6195   84.3457   14.6032 C.ar    1  UNL1       -0.0003
     13 C          64.7437   83.1092   13.7630 C.ar    1  UNL1       -0.0043
     14 C          64.0665   83.0395   12.4264 C.ar    1  UNL1       -0.0221
     15 C          63.2650   84.2063   11.9300 C.ar    1  UNL1       -0.0043
     16 C          63.1408   85.4426   12.7701 C.ar    1  UNL1       -0.0003
     17 C          64.1907   81.8031   11.5863 C.3     1  UNL1        0.0289
     18 C          63.0025   80.9097   11.3864 C.3     1  UNL1        0.0367
     19 C          62.6884   79.8429   12.3931 C.3     1  UNL1        0.1426
     20 O          62.4134   80.2155   13.8198 O.3     1  UNL1       -0.3511
     21 C          61.3608   81.2352   14.1390 C.3     1  UNL1        0.1741
     22 C          65.0106   91.2767   13.7304 C.2     1  UNL1        0.2015
     23 O          66.4072   91.8232   13.7535 O.2     1  UNL1       -0.2864
     24 C          62.0671   90.6763   11.1370 C.ar    1  UNL1        0.0920
     25 C          62.6678   91.2510    9.8884 C.ar    1  UNL1        0.0204
     26 C          64.0494   91.8343    9.9205 C.ar    1  UNL1        0.0312
     27 C          64.8303   91.8429   11.2011 C.ar    1  UNL1        0.1454
     28 F          66.2119   92.4262   11.2332 F       1  UNL1       -0.2040
     29 C          64.2297   91.2681   12.4497 C.ar    1  UNL1        0.0951
     30 C          62.8481   90.6849   12.4176 C.ar    1  UNL1        0.1598
     31 F          62.2475   90.1101   13.6662 F       1  UNL1       -0.2026
     32 N          60.6856   90.0930   11.1048 N.pl3   1  UNL1       -0.2166
     33 H          59.9455   90.5548   11.5613 H       1  UNL1        0.1734
     34 S          60.4315   88.8061   10.3773 S.O2    1  UNL1        0.0540
     35 O          59.9299   89.5755    9.1915 O.2     1  UNL1       -0.1545
     36 O          60.9332   88.0367   11.5632 O.2     1  UNL1       -0.1545
     37 C          60.1775   87.5192    9.6499 C.3     1  UNL1        0.1724
     38 C          62.1623   86.0572    8.8292 C.3     1  UNL1        0.0019
     39 C          61.0996   86.3523    9.8457 C.3     1  UNL1        0.0273
@<TRIPOS>BOND
     1    38    39    1
     2    39    37    1
     3    37    34    1
     4    34    35    2
     5    34    36    2
     6    34    32    1
     7    32    24    1
     8    24    25   ar
     9    25    26   ar
    10    26    27   ar
    11    27    28    1
    12    27    29   ar
    13    29    22    1
    14    22    23    2
    15    22     1    1
    16     1     2   ar
    17     2     3   ar
    18     3     4   ar
    19     4     5   ar
    20     5     6   ar
    21     6     7   ar
    22     7    11    1
    23    11    12   ar
    24    12    13   ar
    25    13    14   ar
    26    14    17    1
    27    17    18    1
    28    18    19    1
    29    19    20    1
    30    20    21    1
    31    14    15   ar
    32    15    16   ar
    33     7     8   ar
    34     8     9   ar
    35    29    30   ar
    36    30    31    1
    37    30    24   ar
    38     9     1   ar
    39     9     4    1
    40    16    11   ar
    41    32    33    1
    42     5    10    1
@<TRIPOS>MOLECULE
*****
 39 42 0 0 0
SMALL
GASTEIGER

@<TRIPOS>ATOM
      1 C          64.0581   87.7410   14.3458 C.ar    1  UNL1        0.0611
      2 C          64.7761   86.6868   15.1351 C.ar    1  UNL1        0.1037
      3 N          64.5786   85.3723   14.4400 N.ar    1  UNL1       -0.2269
      4 C          63.7386   85.6142   13.2210 C.ar    1  UNL1        0.1407
      5 N          63.2250   84.6906   12.1565 N.ar    1  UNL1       -0.3374
      6 C          62.3898   85.2309   11.0339 C.ar    1  UNL1        0.0734
      7 C          62.0681   86.6948   10.9757 C.ar    1  UNL1        0.0171
      8 C          62.5817   87.6184   12.0401 C.ar    1  UNL1        0.0046
      9 C          63.4169   87.0781   13.1628 C.ar    1  UNL1        0.0386
     10 H          63.4362   83.7297   12.1947 H       1  UNL1        0.1674
     11 C          61.2328   87.2351    9.8529 C.ar    1  UNL1        0.0014
     12 C          61.0272   88.7146    9.7159 C.ar    1  UNL1       -0.0003
     13 C          60.1919   89.2549    8.5931 C.ar    1  UNL1       -0.0043
     14 C          59.5623   88.3156    7.6075 C.ar    1  UNL1       -0.0221
     15 C          59.7680   86.8361    7.7446 C.ar    1  UNL1       -0.0043
     16 C          60.6033   86.2958    8.8673 C.ar    1  UNL1       -0.0003
     17 C          58.7271   88.8558    6.4848 C.3     1  UNL1        0.0289
     18 C          59.0594   90.1856    5.8755 C.3     1  UNL1        0.0367
     19 C          57.9698   91.0384    5.2960 C.3     1  UNL1        0.1426
     20 O          58.3169   92.2097    4.4257 O.3     1  UNL1       -0.3511
     21 C          59.7365   92.4283    3.9935 C.3     1  UNL1        0.1741
     22 C          63.9928   89.2017   14.6806 C.2     1  UNL1        0.2015
     23 O          63.7647   89.6369   16.0978 O.2     1  UNL1       -0.2864
     24 C          65.6293   91.9621   12.3455 C.ar    1  UNL1        0.0920
     25 C          64.4813   92.2785   11.4333 C.ar    1  UNL1        0.0204
     26 C          63.1706   91.5693   11.6035 C.ar    1  UNL1        0.0312
     27 C          63.0077   90.5437   12.6859 C.ar    1  UNL1        0.1454
     28 F          61.6970   89.8345   12.8561 F       1  UNL1       -0.2040
     29 C          64.1556   90.2273   13.5981 C.ar    1  UNL1        0.0951
     30 C          65.4664   90.9365   13.4279 C.ar    1  UNL1        0.1598
     31 F          66.6143   90.6201   14.3402 F       1  UNL1       -0.2026
     32 N          66.9400   92.6713   12.1753 N.pl3   1  UNL1       -0.2166
     33 H          67.6200   92.6261   12.8857 H       1  UNL1        0.1734
     34 S          67.2146   93.4494   10.9226 S.O2    1  UNL1        0.0540
     35 O          67.5780   92.1788   10.2131 O.2     1  UNL1       -0.1545
     36 O          66.8512   94.7200   11.6322 O.2     1  UNL1       -0.1545
     37 C          67.4892   94.2275    9.6700 C.3     1  UNL1        0.1724
     38 C          67.0229   96.2883    8.1580 C.3     1  UNL1        0.0019
     39 C          66.6818   95.4520    9.3556 C.3     1  UNL1        0.0273
@<TRIPOS>BOND
     1    38    39    1
     2    39    37    1
     3    37    34    1
     4    34    35    2
     5    34    36    2
     6    34    32    1
     7    32    24    1
     8    24    25   ar
     9    25    26   ar
    10    26    27   ar
    11    27    28    1
    12    27    29   ar
    13    29    22    1
    14    22    23    2
    15    22     1    1
    16     1     2   ar
    17     2     3   ar
    18     3     4   ar
    19     4     5   ar
    20     5     6   ar
    21     6     7   ar
    22     7    11    1
    23    11    12   ar
    24    12    13   ar
    25    13    14   ar
    26    14    17    1
    27    17    18    1
    28    18    19    1
    29    19    20    1
    30    20    21    1
    31    14    15   ar
    32    15    16   ar
    33     7     8   ar
    34     8     9   ar
    35    29    30   ar
    36    30    31    1
    37    30    24   ar
    38     9     1   ar
    39     9     4    1
    40    16    11   ar
    41    32    33    1
    42     5    10    1
@<TRIPOS>MOLECULE
*****
 39 42 0 0 0
SMALL
GASTEIGER

@<TRIPOS>ATOM
      1 C          60.3785   89.4632    9.5927 C.ar    1  UNL1        0.0611
      2 C          59.7380   89.9544    8.3284 C.ar    1  UNL1        0.1037
      3 N          59.7999   88.8481    7.3173 N.ar    1  UNL1       -0.2269
      4 C          60.4787   87.6732    7.9567 C.ar    1  UNL1        0.1407
      5 N          60.8173   86.3063    7.4401 N.ar    1  UNL1       -0.3374
      6 C          61.5135   85.3196    8.3298 C.ar    1  UNL1        0.0734
      7 C          61.8711   85.6997    9.7361 C.ar    1  UNL1        0.0171
      8 C          61.5325   87.0666   10.2527 C.ar    1  UNL1        0.0046
      9 C          60.8363   88.0533    9.3630 C.ar    1  UNL1        0.0386
     10 H          60.5826   86.0568    6.5171 H       1  UNL1        0.1674
     11 C          62.5674   84.7129   10.6257 C.ar    1  UNL1        0.0014
     12 C          63.4227   83.6361   10.0266 C.ar    1  UNL1       -0.0003
     13 C          64.1190   82.6493   10.9163 C.ar    1  UNL1       -0.0043
     14 C          63.9598   82.7393   12.4051 C.ar    1  UNL1       -0.0221
     15 C          63.1045   83.8161   13.0042 C.ar    1  UNL1       -0.0043
     16 C          62.4083   84.8028   12.1146 C.ar    1  UNL1       -0.0003
     17 C          64.6560   81.7525   13.2948 C.3     1  UNL1        0.0289
     18 C          63.8597   80.7235   14.0410 C.3     1  UNL1        0.0367
     19 C          62.4749   80.3709   13.5847 C.3     1  UNL1        0.1426
     20 O          61.2897   81.0837   14.1654 O.3     1  UNL1       -0.3511
     21 C          59.9434   80.4223   14.1665 C.3     1  UNL1        0.1741
     22 C          60.5340   90.2446   10.8636 C.2     1  UNL1        0.2015
     23 O          59.3211   90.6564   11.6440 O.2     1  UNL1       -0.2864
     24 C          63.6365   90.7657   13.2830 C.ar    1  UNL1        0.0920
     25 C          64.6395   91.3535   12.3352 C.ar    1  UNL1        0.0204
     26 C          64.2741   91.5717   10.8968 C.ar    1  UNL1        0.0312
     27 C          62.9056   91.2021   10.4063 C.ar    1  UNL1        0.1454
     28 F          62.5401   91.4203    8.9679 F       1  UNL1       -0.2040
     29 C          61.9026   90.6143   11.3541 C.ar    1  UNL1        0.0951
     30 C          62.2680   90.3961   12.7925 C.ar    1  UNL1        0.1598
     31 F          61.2649   89.8082   13.7403 F       1  UNL1       -0.2026
     32 N          64.0020   90.5475   14.7213 N.pl3   1  UNL1       -0.2166
     33 H          64.4023   91.2794   15.2440 H       1  UNL1        0.1734
     34 S          63.7574   89.2140   15.3633 S.O2    1  UNL1        0.0540
     35 O          64.5979   88.5533   14.3111 O.2     1  UNL1       -0.1545
     36 O          62.9170   89.8747   16.4155 O.2     1  UNL1       -0.1545
     37 C          63.5129   87.8807   16.0053 C.3     1  UNL1        0.1724
     38 C          62.7083   86.4886   18.0462 C.3     1  UNL1        0.0019
     39 C          62.8186   87.8034   17.3328 C.3     1  UNL1        0.0273
@<TRIPOS>BOND
     1    38    39    1
     2    39    37    1
     3    37    34    1
     4    34    35    2
     5    34    36    2
     6    34    32    1
     7    32    24    1
     8    24    25   ar
     9    25    26   ar
    10    26    27   ar
    11    27    28    1
    12    27    29   ar
    13    29    22    1
    14    22    23    2
    15    22     1    1
    16     1     2   ar
    17     2     3   ar
    18     3     4   ar
    19     4     5   ar
    20     5     6   ar
    21     6     7   ar
    22     7    11    1
    23    11    12   ar
    24    12    13   ar
    25    13    14   ar
    26    14    17    1
    27    17    18    1
    28    18    19    1
    29    19    20    1
    30    20    21    1
    31    14    15   ar
    32    15    16   ar
    33     7     8   ar
    34     8     9   ar
    35    29    30   ar
    36    30    31    1
    37    30    24   ar
    38     9     1   ar
    39     9     4    1
    40    16    11   ar
    41    32    33    1
    42     5    10    1
@<TRIPOS>MOLECULE
*****
 39 42 0 0 0
SMALL
GASTEIGER

@<TRIPOS>ATOM
      1 C          60.4376   89.4989    9.6856 C.ar    1  UNL1        0.0611
      2 C          59.7667   89.9957    8.4394 C.ar    1  UNL1        0.1037
      3 N          59.7822   88.8857    7.4307 N.ar    1  UNL1       -0.2269
      4 C          60.4626   87.7028    8.0534 C.ar    1  UNL1        0.1407
      5 N          60.7657   86.3296    7.5315 N.ar    1  UNL1       -0.3374
      6 C          61.4738   85.3354    8.4033 C.ar    1  UNL1        0.0734
      7 C          61.8788   85.7143    9.7969 C.ar    1  UNL1        0.0171
      8 C          61.5758   87.0875   10.3189 C.ar    1  UNL1        0.0046
      9 C          60.8677   88.0818    9.4471 C.ar    1  UNL1        0.0386
     10 H          60.4998   86.0809    6.6168 H       1  UNL1        0.1674
     11 C          62.5870   84.7200   10.6687 C.ar    1  UNL1        0.0014
     12 C          62.3267   84.6981   12.1457 C.ar    1  UNL1       -0.0003
     13 C          63.0348   83.7038   13.0175 C.ar    1  UNL1       -0.0043
     14 C          64.0033   82.7314   12.4122 C.ar    1  UNL1       -0.0221
     15 C          64.2636   82.7533   10.9350 C.ar    1  UNL1       -0.0043
     16 C          63.5555   83.7476   10.0633 C.ar    1  UNL1       -0.0003
     17 C          64.7114   81.7371   13.2838 C.3     1  UNL1        0.0289
     18 C          63.9425   80.6201   13.9249 C.3     1  UNL1        0.0367
     19 C          62.9006   79.8796   13.1399 C.3     1  UNL1        0.1426
     20 O          61.4948   79.7916   13.6556 O.3     1  UNL1       -0.3511
     21 C          60.8023   81.0231   14.1594 C.3     1  UNL1        0.1741
     22 C          60.6424   90.2816   10.9487 C.2     1  UNL1        0.2015
     23 O          59.4614   90.6871   11.7797 O.2     1  UNL1       -0.2864
     24 C          63.8586   90.7731   13.2214 C.ar    1  UNL1        0.0920
     25 C          64.8004   91.4134   12.2451 C.ar    1  UNL1        0.0204
     26 C          64.3562   91.6764   10.8367 C.ar    1  UNL1        0.0312
     27 C          62.9702   91.2992   10.4046 C.ar    1  UNL1        0.1454
     28 F          62.5260   91.5622    8.9962 F       1  UNL1       -0.2040
     29 C          62.0284   90.6589   11.3808 C.ar    1  UNL1        0.0951
     30 C          62.4726   90.3959   12.7892 C.ar    1  UNL1        0.1598
     31 F          61.5308   89.7556   13.7654 F       1  UNL1       -0.2026
     32 N          64.3028   90.5101   14.6298 N.pl3   1  UNL1       -0.2166
     33 H          64.0409   89.6751   15.0807 H       1  UNL1        0.1734
     34 S          65.1459   91.5195   15.3511 S.O2    1  UNL1        0.0540
     35 O          63.9285   92.0250   16.0668 O.2     1  UNL1       -0.1545
     36 O          66.3634   91.0140   14.6353 O.2     1  UNL1       -0.1545
     37 C          65.9892   92.5287   16.0723 C.3     1  UNL1        0.1724
     38 C          68.3207   93.6463   15.8166 C.3     1  UNL1        0.0019
     39 C          67.4848   92.4202   16.0355 C.3     1  UNL1        0.0273
@<TRIPOS>BOND
     1    38    39    1
     2    39    37    1
     3    37    34    1
     4    34    35    2
     5    34    36    2
     6    34    32    1
     7    32    24    1
     8    24    25   ar
     9    25    26   ar
    10    26    27   ar
    11    27    28    1
    12    27    29   ar
    13    29    22    1
    14    22    23    2
    15    22     1    1
    16     1     2   ar
    17     2     3   ar
    18     3     4   ar
    19     4     5   ar
    20     5     6   ar
    21     6     7   ar
    22     7    11    1
    23    11    12   ar
    24    12    13   ar
    25    13    14   ar
    26    14    17    1
    27    17    18    1
    28    18    19    1
    29    19    20    1
    30    20    21    1
    31    14    15   ar
    32    15    16   ar
    33     7     8   ar
    34     8     9   ar
    35    29    30   ar
    36    30    31    1
    37    30    24   ar
    38     9     1   ar
    39     9     4    1
    40    16    11   ar
    41    32    33    1
    42     5    10    1
@<TRIPOS>MOLECULE
*****
 39 42 0 0 0
SMALL
GASTEIGER

@<TRIPOS>ATOM
      1 C          64.3459   90.7241   14.7630 C.ar    1  UNL1        0.0611
      2 C          64.0809   91.8408   15.7287 C.ar    1  UNL1        0.1037
      3 N          63.5313   91.2425   16.9896 N.ar    1  UNL1       -0.2269
      4 C          63.4567   89.7560   16.8032 C.ar    1  UNL1        0.1407
      5 N          62.9953   88.6528   17.7088 N.ar    1  UNL1       -0.3374
      6 C          63.0375   87.2292   17.2381 C.ar    1  UNL1        0.0734
      7 C          63.5409   86.9088   15.8620 C.ar    1  UNL1        0.0171
      8 C          64.0023   88.0120   14.9564 C.ar    1  UNL1        0.0046
      9 C          63.9602   89.4356   15.4270 C.ar    1  UNL1        0.0386
     10 H          62.6649   88.8631   18.6120 H       1  UNL1        0.1674
     11 C          63.5831   85.4851   15.3914 C.ar    1  UNL1        0.0014
     12 C          62.4332   84.5658   15.6789 C.ar    1  UNL1       -0.0003
     13 C          62.4753   83.1421   15.2083 C.ar    1  UNL1       -0.0043
     14 C          63.6673   82.6378   14.4502 C.ar    1  UNL1       -0.0221
     15 C          64.8172   83.5571   14.1626 C.ar    1  UNL1       -0.0043
     16 C          64.7751   84.9808   14.6332 C.ar    1  UNL1       -0.0003
     17 C          63.7095   81.2142   13.9796 C.3     1  UNL1        0.0289
     18 C          63.5681   80.9026   12.5192 C.3     1  UNL1        0.0367
     19 C          62.6968   81.7603   11.6501 C.3     1  UNL1        0.1426
     20 O          63.2809   82.9445   10.9386 O.3     1  UNL1       -0.3511
     21 C          62.8215   84.3295   11.2855 C.3     1  UNL1        0.1741
     22 C          64.8996   90.8701   13.3766 C.2     1  UNL1        0.2015
     23 O          66.3312   91.2715   13.1791 O.2     1  UNL1       -0.2864
     24 C          62.4612   89.0327   10.8411 C.ar    1  UNL1        0.0920
     25 C          62.2652   90.1040    9.8096 C.ar    1  UNL1        0.0204
     26 C          62.9473   91.4306    9.9671 C.ar    1  UNL1        0.0312
     27 C          63.8254   91.6860   11.1560 C.ar    1  UNL1        0.1454
     28 F          64.5075   93.0127   11.3135 F       1  UNL1       -0.2040
     29 C          64.0214   90.6148   12.1875 C.ar    1  UNL1        0.0951
     30 C          63.3393   89.2881   12.0300 C.ar    1  UNL1        0.1598
     31 F          63.5354   88.2169   13.0616 F       1  UNL1       -0.2026
     32 N          61.7791   87.7061   10.6836 N.pl3   1  UNL1       -0.2166
     33 H          61.8361   87.0350   11.4016 H       1  UNL1        0.1734
     34 S          61.0103   87.4020    9.4320 S.O2    1  UNL1        0.0540
     35 O          62.2433   86.8071    8.8191 O.2     1  UNL1       -0.1545
     36 O          59.7772   87.9969   10.0449 O.2     1  UNL1       -0.1545
     37 C          60.2414   87.0979    8.1805 C.3     1  UNL1        0.1724
     38 C          59.4735   89.2327    6.9141 C.3     1  UNL1        0.0019
     39 C          59.1454   88.0184    7.7313 C.3     1  UNL1        0.0273
@<TRIPOS>BOND
     1    38    39    1
     2    39    37    1
     3    37    34    1
     4    34    35    2
     5    34    36    2
     6    34    32    1
     7    32    24    1
     8    24    25   ar
     9    25    26   ar
    10    26    27   ar
    11    27    28    1
    12    27    29   ar
    13    29    22    1
    14    22    23    2
    15    22     1    1
    16     1     2   ar
    17     2     3   ar
    18     3     4   ar
    19     4     5   ar
    20     5     6   ar
    21     6     7   ar
    22     7    11    1
    23    11    12   ar
    24    12    13   ar
    25    13    14   ar
    26    14    17    1
    27    17    18    1
    28    18    19    1
    29    19    20    1
    30    20    21    1
    31    14    15   ar
    32    15    16   ar
    33     7     8   ar
    34     8     9   ar
    35    29    30   ar
    36    30    31    1
    37    30    24   ar
    38     9     1   ar
    39     9     4    1
    40    16    11   ar
    41    32    33    1
    42     5    10    1
@<TRIPOS>MOLECULE
*****
 39 42 0 0 0
SMALL
GASTEIGER

@<TRIPOS>ATOM
      1 C          63.3849   84.7228   14.2275 C.ar    1  UNL1        0.0611
      2 C          64.4336   83.6867   14.5044 C.ar    1  UNL1        0.1037
      3 N          64.9027   83.1390   13.1891 N.ar    1  UNL1       -0.2269
      4 C          64.1439   83.8366   12.0994 C.ar    1  UNL1        0.1407
      5 N          64.1860   83.7070   10.6056 N.ar    1  UNL1       -0.3374
      6 C          63.2900   84.5562    9.7536 C.ar    1  UNL1        0.0734
      7 C          62.3519   85.5351   10.3954 C.ar    1  UNL1        0.0171
      8 C          62.3099   85.6647   11.8892 C.ar    1  UNL1        0.0046
      9 C          63.2059   84.8155   12.7411 C.ar    1  UNL1        0.0386
     10 H          64.8017   83.0645   10.1844 H       1  UNL1        0.1674
     11 C          61.4559   86.3844    9.5433 C.ar    1  UNL1        0.0014
     12 C          60.6645   85.7598    8.4326 C.ar    1  UNL1       -0.0003
     13 C          59.7685   86.6091    7.5806 C.ar    1  UNL1       -0.0043
     14 C          59.6639   88.0829    7.8392 C.ar    1  UNL1       -0.0221
     15 C          60.4553   88.7074    8.9500 C.ar    1  UNL1       -0.0043
     16 C          61.3513   87.8582    9.8020 C.ar    1  UNL1       -0.0003
     17 C          58.7679   88.9321    6.9872 C.3     1  UNL1        0.0289
     18 C          59.3591   89.9685    6.0783 C.3     1  UNL1        0.0367
     19 C          58.4694   90.9715    5.4055 C.3     1  UNL1        0.1426
     20 O          59.0184   92.3065    4.9975 O.3     1  UNL1       -0.3511
     21 C          59.8029   92.4379    3.7258 C.3     1  UNL1        0.1741
     22 C          62.6451   85.5254   15.2564 C.2     1  UNL1        0.2015
     23 O          61.4869   84.9180   15.9909 O.2     1  UNL1       -0.2864
     24 C          64.1402   89.1706   14.7792 C.ar    1  UNL1        0.0920
     25 C          63.9005   89.7556   16.1395 C.ar    1  UNL1        0.0204
     26 C          63.2423   88.9305   17.2054 C.ar    1  UNL1        0.0312
     27 C          62.8238   87.5205   16.9111 C.ar    1  UNL1        0.1454
     28 F          62.1656   86.6955   17.9769 F       1  UNL1       -0.2040
     29 C          63.0636   86.9355   15.5508 C.ar    1  UNL1        0.0951
     30 C          63.7218   87.7606   14.4849 C.ar    1  UNL1        0.1598
     31 F          63.9615   87.1755   13.1247 F       1  UNL1       -0.2026
     32 N          64.7984   89.9956   13.7134 N.pl3   1  UNL1       -0.2166
     33 H          64.8197   89.6725   12.7837 H       1  UNL1        0.1734
     34 S          65.4241   91.3130   14.0640 S.O2    1  UNL1        0.0540
     35 O          66.6127   90.5969   14.6335 O.2     1  UNL1       -0.1545
     36 O          64.2355   92.0291   13.4946 O.2     1  UNL1       -0.1545
     37 C          66.0497   92.6304   14.4147 C.3     1  UNL1        0.1724
     38 C          68.0960   93.4922   15.7638 C.3     1  UNL1        0.0019
     39 C          66.7684   92.7954   15.7209 C.3     1  UNL1        0.0273
@<TRIPOS>BOND
     1    38    39    1
     2    39    37    1
     3    37    34    1
     4    34    35    2
     5    34    36    2
     6    34    32    1
     7    32    24    1
     8    24    25   ar
     9    25    26   ar
    10    26    27   ar
    11    27    28    1
    12    27    29   ar
    13    29    22    1
    14    22    23    2
    15    22     1    1
    16     1     2   ar
    17     2     3   ar
    18     3     4   ar
    19     4     5   ar
    20     5     6   ar
    21     6     7   ar
    22     7    11    1
    23    11    12   ar
    24    12    13   ar
    25    13    14   ar
    26    14    17    1
    27    17    18    1
    28    18    19    1
    29    19    20    1
    30    20    21    1
    31    14    15   ar
    32    15    16   ar
    33     7     8   ar
    34     8     9   ar
    35    29    30   ar
    36    30    31    1
    37    30    24   ar
    38     9     1   ar
    39     9     4    1
    40    16    11   ar
    41    32    33    1
    42     5    10    1
@<TRIPOS>MOLECULE
*****
 39 42 0 0 0
SMALL
GASTEIGER

@<TRIPOS>ATOM
      1 C          63.7008   84.4786   14.9270 C.ar    1  UNL1        0.0611
      2 C          64.7639   83.4828   15.2851 C.ar    1  UNL1        0.1037
      3 N          65.2502   82.8475   14.0163 N.ar    1  UNL1       -0.2269
      4 C          64.4877   83.4507   12.8740 C.ar    1  UNL1        0.1407
      5 N          64.5416   83.2122   11.3941 N.ar    1  UNL1       -0.3374
      6 C          63.6379   83.9818   10.4771 C.ar    1  UNL1        0.0734
      7 C          62.6803   84.9898   11.0399 C.ar    1  UNL1        0.0171
      8 C          62.6264   85.2283   12.5198 C.ar    1  UNL1        0.0046
      9 C          63.5301   84.4587   13.4369 C.ar    1  UNL1        0.0386
     10 H          65.1701   82.5506   11.0247 H       1  UNL1        0.1674
     11 C          61.7766   85.7594   10.1228 C.ar    1  UNL1        0.0014
     12 C          61.7845   85.4753    8.6500 C.ar    1  UNL1       -0.0003
     13 C          60.8807   86.2449    7.7328 C.ar    1  UNL1       -0.0043
     14 C          59.9692   87.2986    8.2886 C.ar    1  UNL1       -0.0221
     15 C          59.9614   87.5827    9.7614 C.ar    1  UNL1       -0.0043
     16 C          60.8651   86.8131   10.6785 C.ar    1  UNL1       -0.0003
     17 C          59.0655   88.0682    7.3715 C.3     1  UNL1        0.0289
     18 C          59.3973   89.4848    7.0067 C.3     1  UNL1        0.0367
     19 C          58.8662   90.0757    5.7343 C.3     1  UNL1        0.1426
     20 O          59.6165   91.1793    5.0495 O.3     1  UNL1       -0.3511
     21 C          58.8741   92.2013    4.2405 C.3     1  UNL1        0.1741
     22 C          62.9416   85.3426   15.8899 C.2     1  UNL1        0.2015
     23 O          61.9132   84.7322   16.7952 O.2     1  UNL1       -0.2864
     24 C          64.0861   88.9901   14.8241 C.ar    1  UNL1        0.0920
     25 C          63.7497   89.7661   16.0629 C.ar    1  UNL1        0.0204
     26 C          63.1440   89.0676   17.2441 C.ar    1  UNL1        0.0312
     27 C          62.8746   87.5931   17.1865 C.ar    1  UNL1        0.1454
     28 F          62.2689   86.8946   18.3676 F       1  UNL1       -0.2040
     29 C          63.2110   86.8171   15.9476 C.ar    1  UNL1        0.0951
     30 C          63.8167   87.5157   14.7665 C.ar    1  UNL1        0.1598
     31 F          64.1531   86.7396   13.5276 F       1  UNL1       -0.2026
     32 N          64.6918   89.6886   13.6429 N.pl3   1  UNL1       -0.2166
     33 H          65.6637   89.6467   13.4914 H       1  UNL1        0.1734
     34 S          63.8168   90.4510   12.6926 S.O2    1  UNL1        0.0540
     35 O          64.3148   91.7426   13.2702 O.2     1  UNL1       -0.1545
     36 O          63.3188   89.1593   12.1150 O.2     1  UNL1       -0.1545
     37 C          62.9418   91.2132   11.7422 C.3     1  UNL1        0.1724
     38 C          60.5492   90.6484   10.9015 C.3     1  UNL1        0.0019
     39 C          62.0358   90.4758   10.8012 C.3     1  UNL1        0.0273
@<TRIPOS>BOND
     1    38    39    1
     2    39    37    1
     3    37    34    1
     4    34    35    2
     5    34    36    2
     6    34    32    1
     7    32    24    1
     8    24    25   ar
     9    25    26   ar
    10    26    27   ar
    11    27    28    1
    12    27    29   ar
    13    29    22    1
    14    22    23    2
    15    22     1    1
    16     1     2   ar
    17     2     3   ar
    18     3     4   ar
    19     4     5   ar
    20     5     6   ar
    21     6     7   ar
    22     7    11    1
    23    11    12   ar
    24    12    13   ar
    25    13    14   ar
    26    14    17    1
    27    17    18    1
    28    18    19    1
    29    19    20    1
    30    20    21    1
    31    14    15   ar
    32    15    16   ar
    33     7     8   ar
    34     8     9   ar
    35    29    30   ar
    36    30    31    1
    37    30    24   ar
    38     9     1   ar
    39     9     4    1
    40    16    11   ar
    41    32    33    1
    42     5    10    1
