@<TRIPOS>MOLECULE
*****
 23 26 0 0 0
SMALL
GASTEIGER

@<TRIPOS>ATOM
      1 N          63.6596   84.9931   14.0380 N.ar    1  UNL1       -0.2077
      2 C          64.5647   85.4878   15.1270 C.ar    1  UNL1        0.0999
      3 C          64.7439   86.9659   14.9450 C.ar    1  UNL1        0.0220
      4 C          63.9497   87.3847   13.7435 C.ar    1  UNL1        0.0187
      5 C          63.7501   88.7188   13.0874 C.ar    1  UNL1       -0.0030
      6 C          62.8803   88.8335   11.8706 C.ar    1  UNL1       -0.0246
      7 C          62.2102   87.6143   11.3101 C.ar    1  UNL1       -0.0232
      8 C          62.4097   86.2802   11.9661 C.ar    1  UNL1        0.0144
      9 C          63.2795   86.1654   13.1828 C.ar    1  UNL1        0.0822
     10 C          61.3096   87.5081   10.1152 C.3     1  UNL1        0.0431
     11 C          60.8568   88.5950    9.1857 C.3     1  UNL1        0.0733
     12 N          61.1928   90.0563    9.2217 N.3     1  UNL1       -0.2969
     13 C          62.0644   90.7920   10.1959 C.3     1  UNL1        0.0733
     14 C          62.8155   90.2477   11.3748 C.3     1  UNL1        0.0431
     15 H          60.2888   90.5248    9.2834 H       1  UNL1        0.1233
     16 O          62.1882   83.7458   14.9208 O.2     1  UNL1       -0.1476
     17 S          63.2130   83.5750   13.8389 S.O2    1  UNL1        0.0865
     18 O          64.2378   83.4043   12.7569 O.2     1  UNL1       -0.1476
     19 C          62.7664   82.1570   13.6397 C.ar    1  UNL1        0.1346
     20 C          61.5875   81.5031   14.2976 C.ar    1  UNL1        0.0279
     21 C          61.5129   80.0858   13.8121 C.ar    1  UNL1        0.0369
     22 S          62.6457   79.8637   12.8543 S.2     1  UNL1       -0.0845
     23 C          63.4204   81.1437   12.7477 C.ar    1  UNL1        0.0558
@<TRIPOS>BOND
     1    16    17    2
     2    17    18    2
     3    17    19    1
     4    19    20   ar
     5    20    21   ar
     6    21    22   ar
     7    22    23   ar
     8    17     1    1
     9     1     2   ar
    10     2     3   ar
    11     3     4   ar
    12     4     5   ar
    13     5     6   ar
    14     6     7   ar
    15     7     8   ar
    16     8     9   ar
    17     7    10    1
    18    10    11    1
    19    11    12    1
    20    12    13    1
    21    13    14    1
    22    23    19   ar
    23     9     1   ar
    24     9     4   ar
    25    14     6    1
    26    12    15    1
@<TRIPOS>MOLECULE
*****
 23 26 0 0 0
SMALL
GASTEIGER

@<TRIPOS>ATOM
      1 N          62.9257   85.6340   12.5454 N.ar    1  UNL1       -0.2077
      2 C          63.7360   86.5947   13.3642 C.ar    1  UNL1        0.0999
      3 C          63.5221   87.9718   12.8094 C.ar    1  UNL1        0.0220
      4 C          62.5796   87.8622   11.6477 C.ar    1  UNL1        0.0187
      5 C          62.0094   88.8915   10.7173 C.ar    1  UNL1       -0.0030
      6 C          61.0705   88.4758    9.6237 C.ar    1  UNL1       -0.0246
      7 C          60.7019   87.0311    9.4606 C.ar    1  UNL1       -0.0232
      8 C          61.2721   86.0018   10.3909 C.ar    1  UNL1        0.0144
      9 C          62.2109   86.4174   11.4845 C.ar    1  UNL1        0.0822
     10 C          59.7908   86.4072    8.4453 C.3     1  UNL1        0.0431
     11 C          59.0234   87.0742    7.3423 C.3     1  UNL1        0.0733
     12 N          58.9776   88.5295    6.9824 N.3     1  UNL1       -0.2969
     13 C          59.6877   89.6776    7.6364 C.3     1  UNL1        0.0733
     14 C          60.6192   89.6537    8.8120 C.3     1  UNL1        0.0431
     15 H          57.9892   88.7754    7.0380 H       1  UNL1        0.1233
     16 O          62.1583   84.3706   14.0668 O.2     1  UNL1       -0.1476
     17 S          62.8443   84.1504   12.7512 S.O2    1  UNL1        0.0865
     18 O          63.5303   83.9303   11.4355 O.2     1  UNL1       -0.1476
     19 C          62.7629   82.6669   12.9569 C.ar    1  UNL1        0.1346
     20 C          63.0167   81.6171   11.9160 C.ar    1  UNL1        0.0279
     21 C          62.8242   80.2740   12.5555 C.ar    1  UNL1        0.0369
     22 S          62.4513   80.4937   13.9917 S.2     1  UNL1       -0.0845
     23 C          62.4135   81.9725   14.2398 C.ar    1  UNL1        0.0558
@<TRIPOS>BOND
     1    16    17    2
     2    17    18    2
     3    17    19    1
     4    19    20   ar
     5    20    21   ar
     6    21    22   ar
     7    22    23   ar
     8    17     1    1
     9     1     2   ar
    10     2     3   ar
    11     3     4   ar
    12     4     5   ar
    13     5     6   ar
    14     6     7   ar
    15     7     8   ar
    16     8     9   ar
    17     7    10    1
    18    10    11    1
    19    11    12    1
    20    12    13    1
    21    13    14    1
    22    23    19   ar
    23     9     1   ar
    24     9     4   ar
    25    14     6    1
    26    12    15    1
@<TRIPOS>MOLECULE
*****
 23 26 0 0 0
SMALL
GASTEIGER

@<TRIPOS>ATOM
      1 N          63.3074   89.4999   12.6719 N.ar    1  UNL1       -0.2077
      2 C          62.6050   90.0008   11.4449 C.ar    1  UNL1        0.0999
      3 C          62.1213   88.8113   10.6696 C.ar    1  UNL1        0.0220
      4 C          62.5248   87.5753   11.4175 C.ar    1  UNL1        0.0187
      5 C          62.3194   86.1172   11.1314 C.ar    1  UNL1       -0.0030
      6 C          62.8472   85.0846   12.0831 C.ar    1  UNL1       -0.0246
      7 C          63.5802   85.5102   13.3205 C.ar    1  UNL1       -0.0232
      8 C          63.7856   86.9683   13.6066 C.ar    1  UNL1        0.0144
      9 C          63.2579   88.0009   12.6550 C.ar    1  UNL1        0.0822
     10 C          64.1828   84.6513   14.3926 C.3     1  UNL1        0.0431
     11 C          64.2011   83.1547   14.4918 C.3     1  UNL1        0.0733
     12 N          63.6214   82.1474   13.5436 N.3     1  UNL1       -0.2969
     13 C          62.8801   82.3879   12.2618 C.3     1  UNL1        0.0733
     14 C          62.5356   83.6951   11.6118 C.3     1  UNL1        0.0431
     15 H          62.9752   81.6019   14.1139 H       1  UNL1        0.1233
     16 O          62.9095   89.9014   14.7165 O.2     1  UNL1       -0.1476
     17 S          63.9471   90.3490   13.7302 S.O2    1  UNL1        0.0865
     18 O          64.9848   90.7965   12.7438 O.2     1  UNL1       -0.1476
     19 C          64.5869   91.1980   14.7884 C.ar    1  UNL1        0.1346
     20 C          64.0468   91.4463   16.1656 C.ar    1  UNL1        0.0279
     21 C          65.0052   92.3497   16.8835 C.ar    1  UNL1        0.0369
     22 S          66.1377   92.6597   15.9499 S.2     1  UNL1       -0.0845
     23 C          65.8791   91.9480   14.6552 C.ar    1  UNL1        0.0558
@<TRIPOS>BOND
     1    16    17    2
     2    17    18    2
     3    17    19    1
     4    19    20   ar
     5    20    21   ar
     6    21    22   ar
     7    22    23   ar
     8    17     1    1
     9     1     2   ar
    10     2     3   ar
    11     3     4   ar
    12     4     5   ar
    13     5     6   ar
    14     6     7   ar
    15     7     8   ar
    16     8     9   ar
    17     7    10    1
    18    10    11    1
    19    11    12    1
    20    12    13    1
    21    13    14    1
    22    23    19   ar
    23     9     1   ar
    24     9     4   ar
    25    14     6    1
    26    12    15    1
@<TRIPOS>MOLECULE
*****
 23 26 0 0 0
SMALL
GASTEIGER

@<TRIPOS>ATOM
      1 N          63.5117   87.4401   13.2395 N.ar    1  UNL1       -0.2077
      2 C          63.8796   86.0381   13.6253 C.ar    1  UNL1        0.0999
      3 C          63.2472   85.1042   12.6365 C.ar    1  UNL1        0.0220
      4 C          62.4885   85.9290   11.6396 C.ar    1  UNL1        0.0187
      5 C          61.6698   85.5520   10.4405 C.ar    1  UNL1       -0.0030
      6 C          61.0146   86.6188    9.6142 C.ar    1  UNL1       -0.0246
      7 C          61.1781   88.0624    9.9869 C.ar    1  UNL1       -0.0232
      8 C          61.9967   88.4395   11.1859 C.ar    1  UNL1        0.0144
      9 C          62.6519   87.3728   12.0123 C.ar    1  UNL1        0.0822
     10 C          60.6147   89.2740    9.3051 C.3     1  UNL1        0.0431
     11 C          59.7487   89.3409    8.0820 C.3     1  UNL1        0.0733
     12 N          59.2323   88.2130    7.2390 N.3     1  UNL1       -0.2969
     13 C          59.4542   86.7394    7.4105 C.3     1  UNL1        0.0733
     14 C          60.2474   86.0299    8.4676 C.3     1  UNL1        0.0431
     15 H          59.5780   88.4160    6.3011 H       1  UNL1        0.1233
     16 O          63.9429   89.4323   12.6519 O.2     1  UNL1       -0.1476
     17 S          63.9301   88.6902   13.9553 S.O2    1  UNL1        0.0865
     18 O          63.9173   87.9480   15.2588 O.2     1  UNL1       -0.1476
     19 C          64.3485   89.9402   14.6712 C.ar    1  UNL1        0.1346
     20 C          63.7133   90.5024   15.9083 C.ar    1  UNL1        0.0279
     21 C          64.4478   91.7571   16.2773 C.ar    1  UNL1        0.0369
     22 S          65.5369   91.9704   15.2681 S.2     1  UNL1       -0.0845
     23 C          65.4756   90.8475   14.2756 C.ar    1  UNL1        0.0558
@<TRIPOS>BOND
     1    16    17    2
     2    17    18    2
     3    17    19    1
     4    19    20   ar
     5    20    21   ar
     6    21    22   ar
     7    22    23   ar
     8    17     1    1
     9     1     2   ar
    10     2     3   ar
    11     3     4   ar
    12     4     5   ar
    13     5     6   ar
    14     6     7   ar
    15     7     8   ar
    16     8     9   ar
    17     7    10    1
    18    10    11    1
    19    11    12    1
    20    12    13    1
    21    13    14    1
    22    23    19   ar
    23     9     1   ar
    24     9     4   ar
    25    14     6    1
    26    12    15    1
@<TRIPOS>MOLECULE
*****
 23 26 0 0 0
SMALL
GASTEIGER

@<TRIPOS>ATOM
      1 N          63.7693   89.1934   15.0665 N.ar    1  UNL1       -0.2077
      2 C          63.4038   89.5209   16.4839 C.ar    1  UNL1        0.0999
      3 C          63.0923   88.2352   17.1911 C.ar    1  UNL1        0.0220
      4 C          63.2653   87.1132   16.2108 C.ar    1  UNL1        0.0187
      5 C          63.0959   85.6288   16.3442 C.ar    1  UNL1       -0.0030
      6 C          63.3449   84.7365   15.1643 C.ar    1  UNL1       -0.0246
      7 C          63.7633   85.3287   13.8513 C.ar    1  UNL1       -0.0232
      8 C          63.9327   86.8131   13.7179 C.ar    1  UNL1        0.0144
      9 C          63.6837   87.7054   14.8976 C.ar    1  UNL1        0.0822
     10 C          64.0601   84.6251   12.5602 C.3     1  UNL1        0.0431
     11 C          64.0118   83.1554   12.2634 C.3     1  UNL1        0.0733
     12 N          63.6548   82.0267   13.1843 N.3     1  UNL1       -0.2969
     13 C          63.2579   82.0885   14.6296 C.3     1  UNL1        0.0733
     14 C          63.1200   83.2945   15.5108 C.3     1  UNL1        0.0431
     15 H          64.4722   81.4167   13.1697 H       1  UNL1        0.1233
     16 O          62.8136   90.0010   13.3535 O.2     1  UNL1       -0.1476
     17 S          64.1530   90.1806   14.0043 S.O2    1  UNL1        0.0865
     18 O          65.4925   90.3601   14.6552 O.2     1  UNL1       -0.1476
     19 C          64.5368   91.1677   12.9421 C.ar    1  UNL1        0.1346
     20 C          63.9296   91.2720   11.5745 C.ar    1  UNL1        0.0279
     21 C          64.6128   92.3927   10.8482 C.ar    1  UNL1        0.0369
     22 S          65.6423   92.9810   11.7671 S.2     1  UNL1       -0.0845
     23 C          65.5953   92.2239   13.0611 C.ar    1  UNL1        0.0558
@<TRIPOS>BOND
     1    16    17    2
     2    17    18    2
     3    17    19    1
     4    19    20   ar
     5    20    21   ar
     6    21    22   ar
     7    22    23   ar
     8    17     1    1
     9     1     2   ar
    10     2     3   ar
    11     3     4   ar
    12     4     5   ar
    13     5     6   ar
    14     6     7   ar
    15     7     8   ar
    16     8     9   ar
    17     7    10    1
    18    10    11    1
    19    11    12    1
    20    12    13    1
    21    13    14    1
    22    23    19   ar
    23     9     1   ar
    24     9     4   ar
    25    14     6    1
    26    12    15    1
@<TRIPOS>MOLECULE
*****
 23 26 0 0 0
SMALL
GASTEIGER

@<TRIPOS>ATOM
      1 N          63.5069   87.7057   15.6840 N.ar    1  UNL1       -0.2077
      2 C          63.0955   87.6511   17.1254 C.ar    1  UNL1        0.0999
      3 C          62.6659   86.2470   17.4319 C.ar    1  UNL1        0.0220
      4 C          62.8117   85.4339   16.1799 C.ar    1  UNL1        0.0187
      5 C          62.5383   83.9890   15.8840 C.ar    1  UNL1       -0.0030
      6 C          62.7848   83.4457   14.5076 C.ar    1  UNL1       -0.0246
      7 C          63.3045   84.3472   13.4274 C.ar    1  UNL1       -0.0232
      8 C          63.5779   85.7920   13.7233 C.ar    1  UNL1        0.0144
      9 C          63.3315   86.3354   15.0996 C.ar    1  UNL1        0.0822
     10 C          63.6164   84.0118   11.9990 C.3     1  UNL1        0.0431
     11 C          63.4856   82.6920   11.2982 C.3     1  UNL1        0.0733
     12 N          63.0105   81.3818   11.8526 N.3     1  UNL1       -0.2969
     13 C          62.5490   81.0675   13.2448 C.3     1  UNL1        0.0733
     14 C          62.4485   81.9861   14.4265 C.3     1  UNL1        0.0431
     15 H          63.7856   80.7392   11.6892 H       1  UNL1        0.1233
     16 O          65.2947   88.2095   14.6593 O.2     1  UNL1       -0.1476
     17 S          64.0060   88.9179   14.9548 S.O2    1  UNL1        0.0865
     18 O          62.7172   89.6262   15.2503 O.2     1  UNL1       -0.1476
     19 C          64.5050   90.1300   14.2257 C.ar    1  UNL1        0.1346
     20 C          63.9464   90.6825   12.9478 C.ar    1  UNL1        0.0279
     21 C          64.7465   91.8964   12.5788 C.ar    1  UNL1        0.0369
     22 S          65.7996   92.0942   13.6286 S.2     1  UNL1       -0.0845
     23 C          65.6503   91.0026   14.6463 C.ar    1  UNL1        0.0558
@<TRIPOS>BOND
     1    16    17    2
     2    17    18    2
     3    17    19    1
     4    19    20   ar
     5    20    21   ar
     6    21    22   ar
     7    22    23   ar
     8    17     1    1
     9     1     2   ar
    10     2     3   ar
    11     3     4   ar
    12     4     5   ar
    13     5     6   ar
    14     6     7   ar
    15     7     8   ar
    16     8     9   ar
    17     7    10    1
    18    10    11    1
    19    11    12    1
    20    12    13    1
    21    13    14    1
    22    23    19   ar
    23     9     1   ar
    24     9     4   ar
    25    14     6    1
    26    12    15    1
@<TRIPOS>MOLECULE
*****
 23 26 0 0 0
SMALL
GASTEIGER

@<TRIPOS>ATOM
      1 N          62.2570   88.3707   11.2907 N.ar    1  UNL1       -0.2077
      2 C          62.8923   89.5777   11.9148 C.ar    1  UNL1        0.0999
      3 C          63.7186   89.1169   13.0789 C.ar    1  UNL1        0.0220
      4 C          63.5940   87.6252   13.1741 C.ar    1  UNL1        0.0187
      5 C          64.1865   86.6272   14.1244 C.ar    1  UNL1       -0.0030
      6 C          63.8756   85.1679   13.9695 C.ar    1  UNL1       -0.0246
      7 C          62.9723   84.7068   12.8645 C.ar    1  UNL1       -0.0232
      8 C          62.3799   85.7047   11.9142 C.ar    1  UNL1        0.0144
      9 C          62.6907   87.1639   12.0690 C.ar    1  UNL1        0.0822
     10 C          62.5362   83.3100   12.5344 C.3     1  UNL1        0.0431
     11 C          62.8957   82.0294   13.2281 C.3     1  UNL1        0.0733
     12 N          63.7800   81.8295   14.4230 N.3     1  UNL1       -0.2969
     13 C          64.5234   82.8606   15.2195 C.3     1  UNL1        0.0733
     14 C          64.5659   84.3464   15.0176 C.3     1  UNL1        0.0431
     15 H          64.5026   81.1855   14.1012 H       1  UNL1        0.1233
     16 O          62.3394   87.5367    9.3420 O.2     1  UNL1       -0.1476
     17 S          61.3477   88.3704   10.0978 S.O2    1  UNL1        0.0865
     18 O          60.3559   89.2041   10.8537 O.2     1  UNL1       -0.1476
     19 C          60.4383   88.3701    8.9049 C.ar    1  UNL1        0.1346
     20 C          59.7309   87.1761    8.3357 C.ar    1  UNL1        0.0279
     21 C          58.9320   87.6319    7.1508 C.ar    1  UNL1        0.0369
     22 S          59.1457   89.1076    6.9877 S.2     1  UNL1       -0.0845
     23 C          60.0765   89.5639    8.0717 C.ar    1  UNL1        0.0558
@<TRIPOS>BOND
     1    16    17    2
     2    17    18    2
     3    17    19    1
     4    19    20   ar
     5    20    21   ar
     6    21    22   ar
     7    22    23   ar
     8    17     1    1
     9     1     2   ar
    10     2     3   ar
    11     3     4   ar
    12     4     5   ar
    13     5     6   ar
    14     6     7   ar
    15     7     8   ar
    16     8     9   ar
    17     7    10    1
    18    10    11    1
    19    11    12    1
    20    12    13    1
    21    13    14    1
    22    23    19   ar
    23     9     1   ar
    24     9     4   ar
    25    14     6    1
    26    12    15    1
@<TRIPOS>MOLECULE
*****
 23 26 0 0 0
SMALL
GASTEIGER

@<TRIPOS>ATOM
      1 N          63.0552   85.2461   15.2174 N.ar    1  UNL1       -0.2077
      2 C          62.4706   84.8120   16.5288 C.ar    1  UNL1        0.0999
      3 C          62.4366   86.0043   17.4385 C.ar    1  UNL1        0.0220
      4 C          63.0002   87.1751   16.6893 C.ar    1  UNL1        0.0187
      5 C          63.2147   88.6075   17.0797 C.ar    1  UNL1       -0.0030
      6 C          63.8116   89.5713   16.0973 C.ar    1  UNL1       -0.0246
      7 C          64.1938   89.1027   14.7247 C.ar    1  UNL1       -0.0232
      8 C          63.9794   87.6704   14.3343 C.ar    1  UNL1        0.0144
      9 C          63.3825   86.7066   15.3166 C.ar    1  UNL1        0.0822
     10 C          64.7984   89.8922   13.6016 C.3     1  UNL1        0.0431
     11 C          65.1700   91.3452   13.5739 C.3     1  UNL1        0.0733
     12 N          65.0288   92.3675   14.6624 N.3     1  UNL1       -0.2969
     13 C          64.4811   92.1894   16.0474 C.3     1  UNL1        0.0733
     14 C          63.9394   90.9450   16.6861 C.3     1  UNL1        0.0431
     15 H          64.4505   93.1002   14.2512 H       1  UNL1        0.1233
     16 O          64.3802   83.6605   14.7376 O.2     1  UNL1       -0.1476
     17 S          63.2741   84.3730   14.0175 S.O2    1  UNL1        0.0865
     18 O          62.1678   85.0856   13.2974 O.2     1  UNL1       -0.1476
     19 C          63.4928   83.5000   12.8175 C.ar    1  UNL1        0.1346
     20 C          62.7777   82.2156   12.5194 C.ar    1  UNL1        0.0279
     21 C          63.3081   81.6799   11.2225 C.ar    1  UNL1        0.0369
     22 S          64.3511   82.6334   10.7192 S.2     1  UNL1       -0.0845
     23 C          64.4652   83.7581   11.7049 C.ar    1  UNL1        0.0558
@<TRIPOS>BOND
     1    16    17    2
     2    17    18    2
     3    17    19    1
     4    19    20   ar
     5    20    21   ar
     6    21    22   ar
     7    22    23   ar
     8    17     1    1
     9     1     2   ar
    10     2     3   ar
    11     3     4   ar
    12     4     5   ar
    13     5     6   ar
    14     6     7   ar
    15     7     8   ar
    16     8     9   ar
    17     7    10    1
    18    10    11    1
    19    11    12    1
    20    12    13    1
    21    13    14    1
    22    23    19   ar
    23     9     1   ar
    24     9     4   ar
    25    14     6    1
    26    12    15    1
@<TRIPOS>MOLECULE
*****
 23 26 0 0 0
SMALL
GASTEIGER

@<TRIPOS>ATOM
      1 N          63.8218   84.6723   13.4229 N.ar    1  UNL1       -0.2077
      2 C          64.7812   83.5286   13.2771 C.ar    1  UNL1        0.0999
      3 C          64.7389   83.0670   11.8505 C.ar    1  UNL1        0.0220
      4 C          63.7533   83.9255   11.1146 C.ar    1  UNL1        0.0187
      5 C          63.2987   83.9319    9.6852 C.ar    1  UNL1       -0.0030
      6 C          62.2772   84.9306    9.2275 C.ar    1  UNL1       -0.0246
      7 C          61.7105   85.9227   10.1992 C.ar    1  UNL1       -0.0232
      8 C          62.1651   85.9163   11.6287 C.ar    1  UNL1        0.0144
      9 C          63.1865   84.9177   12.0864 C.ar    1  UNL1        0.0822
     10 C          60.6908   86.9951    9.9533 C.3     1  UNL1        0.0431
     11 C          59.9861   87.3400    8.6748 C.3     1  UNL1        0.0733
     12 N          60.1271   86.6979    7.3267 N.3     1  UNL1       -0.2969
     13 C          61.0075   85.5521    6.9238 C.3     1  UNL1        0.0733
     14 C          61.9644   84.7656    7.7698 C.3     1  UNL1        0.0431
     15 H          60.4014   87.4608    6.7077 H       1  UNL1        0.1233
     16 O          64.8950   86.0852   14.5856 O.2     1  UNL1       -0.1476
     17 S          63.5461   85.4367   14.6837 S.O2    1  UNL1        0.0865
     18 O          62.1971   84.7881   14.7818 O.2     1  UNL1       -0.1476
     19 C          63.2702   86.2010   15.9445 C.ar    1  UNL1        0.1346
     20 C          63.4685   87.6745   16.1437 C.ar    1  UNL1        0.0279
     21 C          63.0685   88.0101   17.5499 C.ar    1  UNL1        0.0369
     22 S          62.6229   86.7440   18.2198 S.2     1  UNL1       -0.0845
     23 C          62.7476   85.6260   17.2277 C.ar    1  UNL1        0.0558
@<TRIPOS>BOND
     1    16    17    2
     2    17    18    2
     3    17    19    1
     4    19    20   ar
     5    20    21   ar
     6    21    22   ar
     7    22    23   ar
     8    17     1    1
     9     1     2   ar
    10     2     3   ar
    11     3     4   ar
    12     4     5   ar
    13     5     6   ar
    14     6     7   ar
    15     7     8   ar
    16     8     9   ar
    17     7    10    1
    18    10    11    1
    19    11    12    1
    20    12    13    1
    21    13    14    1
    22    23    19   ar
    23     9     1   ar
    24     9     4   ar
    25    14     6    1
    26    12    15    1
