@<TRIPOS>MOLECULE
*****
 28 30 0 0 0
SMALL
GASTEIGER

@<TRIPOS>ATOM
      1 C          65.8299   91.7147   13.8147 C.3     1  UNL1        0.0377
      2 C          65.3663   91.3992   15.2059 C.3     1  UNL1        0.0075
      3 C          64.1364   90.5666   15.4159 C.3     1  UNL1        0.0219
      4 C          63.3700   90.0496   14.2346 C.3     1  UNL1        0.0950
      5 N          63.8336   90.3652   12.8434 N.am    1  UNL1       -0.2637
      6 C          63.0672   89.8481   11.6621 C.2     1  UNL1        0.3077
      7 O          63.5308   90.1637   10.2709 O.2     1  UNL1       -0.2522
      8 N          61.8373   89.0156   11.8721 N.am    1  UNL1       -0.2681
      9 C          65.0635   91.1977   12.6334 C.3     1  UNL1        0.0989
     10 H          61.5330   88.8085   12.7852 H       1  UNL1        0.1564
     11 C          61.0710   88.4987   10.6908 C.ar    1  UNL1        0.0516
     12 C          61.0023   87.0232   10.4287 C.ar    1  UNL1        0.0156
     13 C          60.2361   86.5063    9.2475 C.ar    1  UNL1        0.0127
     14 C          59.5384   87.4645    8.3282 C.ar    1  UNL1        0.0578
     15 CL         58.7721   86.9475    7.1469 Cl      1  UNL1       -0.0822
     16 C          59.6070   88.9399    8.5903 C.ar    1  UNL1        0.0127
     17 C          60.3733   89.4569    9.7716 C.ar    1  UNL1        0.0156
     18 C          66.8845   92.4273   14.6086 C.ar    1  UNL1       -0.0212
     19 C          67.8119   91.6480   15.4932 C.ar    1  UNL1       -0.0042
     20 C          68.8665   92.3605   16.2870 C.ar    1  UNL1       -0.0003
     21 C          68.9936   93.8524   16.1962 C.ar    1  UNL1       -0.0000
     22 C          68.0662   94.6317   15.3115 C.ar    1  UNL1       -0.0003
     23 C          67.0117   93.9191   14.5177 C.ar    1  UNL1       -0.0042
     24 C          66.6598   92.2777   12.6992 C.3     1  UNL1        0.0116
     25 C          66.0067   92.6919   11.4139 C.3     1  UNL1        0.0421
     26 O          67.8691   94.0273   10.1899 O.co2   1  UNL1       -0.5492
     27 C          66.4639   93.9329   10.7062 C.2     1  UNL1        0.0503
     28 O          65.5159   95.0795   10.5149 O.co2   1  UNL1       -0.5492
@<TRIPOS>UNITY_ATOM_ATTR
26 1
charge -1
@<TRIPOS>BOND
     1    26    27   ar
     2    27    28   ar
     3    27    25    1
     4    25    24    1
     5    24     1    1
     6     1    18    1
     7    18    19   ar
     8    19    20   ar
     9    20    21   ar
    10    21    22   ar
    11    22    23   ar
    12     1     2    1
    13     2     3    1
    14     3     4    1
    15     4     5    1
    16     5     6   am
    17     6     7    2
    18     6     8   am
    19     8    11    1
    20    11    12   ar
    21    12    13   ar
    22    13    14   ar
    23    14    15    1
    24    14    16   ar
    25    16    17   ar
    26     5     9    1
    27     9     1    1
    28    23    18   ar
    29    17    11   ar
    30     8    10    1
@<TRIPOS>MOLECULE
*****
 28 30 0 0 0
SMALL
GASTEIGER

@<TRIPOS>ATOM
      1 C          65.6738   91.6876   13.4590 C.3     1  UNL1        0.0377
      2 C          66.1162   92.8252   12.5872 C.3     1  UNL1        0.0075
      3 C          65.5191   93.0003   11.2223 C.3     1  UNL1        0.0219
      4 C          64.4796   92.0377   10.7293 C.3     1  UNL1        0.0950
      5 N          64.0373   90.9001   11.6012 N.am    1  UNL1       -0.2637
      6 C          62.9978   89.9376   11.1082 C.2     1  UNL1        0.3077
      7 O          62.5555   88.8000   11.9801 O.2     1  UNL1       -0.2522
      8 N          62.4007   90.1127    9.7433 N.am    1  UNL1       -0.2681
      9 C          64.6343   90.7250   12.9660 C.3     1  UNL1        0.0989
     10 H          62.6911   90.8593    9.1711 H       1  UNL1        0.1564
     11 C          61.3613   89.1501    9.2504 C.ar    1  UNL1        0.0516
     12 C          60.2112   89.6461    8.4249 C.ar    1  UNL1        0.0156
     13 C          59.1718   88.6837    7.9320 C.ar    1  UNL1        0.0127
     14 C          59.2823   87.2251    8.2644 C.ar    1  UNL1        0.0578
     15 CL         58.2428   86.2626    7.7715 Cl      1  UNL1       -0.0822
     16 C          60.4323   86.7291    9.0899 C.ar    1  UNL1        0.0127
     17 C          61.4718   87.6916    9.5829 C.ar    1  UNL1        0.0156
     18 C          66.6812   92.3329   14.3640 C.ar    1  UNL1       -0.0212
     19 C          66.8325   93.8252   14.3747 C.ar    1  UNL1       -0.0042
     20 C          67.8398   94.4704   15.2797 C.ar    1  UNL1       -0.0003
     21 C          68.6958   93.6233   16.1739 C.ar    1  UNL1       -0.0000
     22 C          68.5445   92.1310   16.1632 C.ar    1  UNL1       -0.0003
     23 C          67.5372   91.4858   15.2582 C.ar    1  UNL1       -0.0042
     24 C          65.5813   90.7741   14.6452 C.3     1  UNL1        0.0116
     25 C          64.4161   89.8396   14.7831 C.3     1  UNL1        0.0421
     26 O          63.4071   91.2626   16.7084 O.co2   1  UNL1       -0.5492
     27 C          63.4842   89.9701   15.9512 C.2     1  UNL1        0.0503
     28 O          62.6293   88.8080   16.3620 O.co2   1  UNL1       -0.5492
@<TRIPOS>UNITY_ATOM_ATTR
26 1
charge -1
@<TRIPOS>BOND
     1    26    27   ar
     2    27    28   ar
     3    27    25    1
     4    25    24    1
     5    24     1    1
     6     1    18    1
     7    18    19   ar
     8    19    20   ar
     9    20    21   ar
    10    21    22   ar
    11    22    23   ar
    12     1     2    1
    13     2     3    1
    14     3     4    1
    15     4     5    1
    16     5     6   am
    17     6     7    2
    18     6     8   am
    19     8    11    1
    20    11    12   ar
    21    12    13   ar
    22    13    14   ar
    23    14    15    1
    24    14    16   ar
    25    16    17   ar
    26     5     9    1
    27     9     1    1
    28    23    18   ar
    29    17    11   ar
    30     8    10    1
@<TRIPOS>MOLECULE
*****
 28 30 0 0 0
SMALL
GASTEIGER

@<TRIPOS>ATOM
      1 C          63.9353   87.9523   14.6900 C.3     1  UNL1        0.0377
      2 C          63.7982   87.7146   16.1646 C.3     1  UNL1        0.0075
      3 C          63.5335   86.3310   16.6799 C.3     1  UNL1        0.0219
      4 C          63.4058   85.1851   15.7204 C.3     1  UNL1        0.0950
      5 N          63.5428   85.4227   14.2458 N.am    1  UNL1       -0.2637
      6 C          63.4152   84.2768   13.2863 C.2     1  UNL1        0.3077
      7 O          63.5523   84.5145   11.8117 O.2     1  UNL1       -0.2522
      8 N          63.1504   82.8932   13.8016 N.am    1  UNL1       -0.2681
      9 C          63.8076   86.8063   13.7305 C.3     1  UNL1        0.0989
     10 H          63.0604   82.7371   14.7695 H       1  UNL1        0.1564
     11 C          63.0227   81.7473   12.8421 C.ar    1  UNL1        0.0516
     12 C          63.3250   81.9504   11.3869 C.ar    1  UNL1        0.0156
     13 C          63.1974   80.8046   10.4274 C.ar    1  UNL1        0.0127
     14 C          62.7674   79.4556   10.9230 C.ar    1  UNL1        0.0578
     15 CL         62.6397   78.3098    9.9634 Cl      1  UNL1       -0.0822
     16 C          62.4651   79.2525   12.3781 C.ar    1  UNL1        0.0127
     17 C          62.5927   80.3984   13.3377 C.ar    1  UNL1        0.0156
     18 C          64.1347   89.3493   15.1986 C.ar    1  UNL1       -0.0212
     19 C          63.2963   89.8616   16.3320 C.ar    1  UNL1       -0.0042
     20 C          63.4957   91.2586   16.8405 C.ar    1  UNL1       -0.0003
     21 C          64.5335   92.1433   16.2157 C.ar    1  UNL1       -0.0000
     22 C          65.3719   91.6309   15.0824 C.ar    1  UNL1       -0.0003
     23 C          65.1725   90.2340   14.5738 C.ar    1  UNL1       -0.0042
     24 C          64.1417   88.6751   13.3919 C.3     1  UNL1        0.0116
     25 C          63.1184   88.5642   12.3008 C.3     1  UNL1        0.0421
     26 O          60.7525   89.6370   12.3394 O.co2   1  UNL1       -0.5492
     27 C          62.2117   89.7213   12.0024 C.2     1  UNL1        0.0503
     28 O          62.7643   90.9627   11.3671 O.co2   1  UNL1       -0.5492
@<TRIPOS>UNITY_ATOM_ATTR
26 1
charge -1
@<TRIPOS>BOND
     1    26    27   ar
     2    27    28   ar
     3    27    25    1
     4    25    24    1
     5    24     1    1
     6     1    18    1
     7    18    19   ar
     8    19    20   ar
     9    20    21   ar
    10    21    22   ar
    11    22    23   ar
    12     1     2    1
    13     2     3    1
    14     3     4    1
    15     4     5    1
    16     5     6   am
    17     6     7    2
    18     6     8   am
    19     8    11    1
    20    11    12   ar
    21    12    13   ar
    22    13    14   ar
    23    14    15    1
    24    14    16   ar
    25    16    17   ar
    26     5     9    1
    27     9     1    1
    28    23    18   ar
    29    17    11   ar
    30     8    10    1
@<TRIPOS>MOLECULE
*****
 28 30 0 0 0
SMALL
GASTEIGER

@<TRIPOS>ATOM
      1 C          63.8528   87.6992   14.2533 C.3     1  UNL1        0.0377
      2 C          63.4065   88.5619   13.1102 C.3     1  UNL1        0.0075
      3 C          62.9338   87.9307   11.8342 C.3     1  UNL1        0.0219
      4 C          62.9074   86.4367   11.7014 C.3     1  UNL1        0.0950
      5 N          63.3537   85.5741   12.8444 N.am    1  UNL1       -0.2637
      6 C          63.3273   84.0802   12.7116 C.2     1  UNL1        0.3077
      7 O          63.7736   83.2177   13.8547 O.2     1  UNL1       -0.2522
      8 N          62.8546   83.4490   11.4356 N.am    1  UNL1       -0.2681
      9 C          63.8264   86.2053   14.1204 C.3     1  UNL1        0.0989
     10 H          62.5617   84.0152   10.6853 H       1  UNL1        0.1564
     11 C          62.8282   81.9552   11.3028 C.ar    1  UNL1        0.0516
     12 C          63.1136   81.3150    9.9766 C.ar    1  UNL1        0.0156
     13 C          63.0872   79.8212    9.8437 C.ar    1  UNL1        0.0127
     14 C          62.7755   78.9674   11.0371 C.ar    1  UNL1        0.0578
     15 CL         62.7491   77.4735   10.9042 Cl      1  UNL1       -0.0822
     16 C          62.4901   79.6076   12.3632 C.ar    1  UNL1        0.0127
     17 C          62.5165   81.1015   12.4961 C.ar    1  UNL1        0.0156
     18 C          64.0591   89.0574   14.8558 C.ar    1  UNL1       -0.0212
     19 C          65.0497   90.0052   14.2474 C.ar    1  UNL1       -0.0042
     20 C          65.2560   91.3633   14.8499 C.ar    1  UNL1       -0.0003
     21 C          64.4717   91.7734   16.0610 C.ar    1  UNL1       -0.0000
     22 C          63.4811   90.8256   16.6695 C.ar    1  UNL1       -0.0003
     23 C          63.2748   89.4675   16.0669 C.ar    1  UNL1       -0.0042
     24 C          64.3708   87.3083   15.6056 C.3     1  UNL1        0.0116
     25 C          63.7977   86.1157   16.3123 C.3     1  UNL1        0.0421
     26 O          62.8749   86.7620   18.6534 O.co2   1  UNL1       -0.5492
     27 C          62.6398   86.2849   17.2508 C.2     1  UNL1        0.0503
     28 O          61.2471   85.9770   16.7867 O.co2   1  UNL1       -0.5492
@<TRIPOS>UNITY_ATOM_ATTR
26 1
charge -1
@<TRIPOS>BOND
     1    26    27   ar
     2    27    28   ar
     3    27    25    1
     4    25    24    1
     5    24     1    1
     6     1    18    1
     7    18    19   ar
     8    19    20   ar
     9    20    21   ar
    10    21    22   ar
    11    22    23   ar
    12     1     2    1
    13     2     3    1
    14     3     4    1
    15     4     5    1
    16     5     6   am
    17     6     7    2
    18     6     8   am
    19     8    11    1
    20    11    12   ar
    21    12    13   ar
    22    13    14   ar
    23    14    15    1
    24    14    16   ar
    25    16    17   ar
    26     5     9    1
    27     9     1    1
    28    23    18   ar
    29    17    11   ar
    30     8    10    1
@<TRIPOS>MOLECULE
*****
 28 30 0 0 0
SMALL
GASTEIGER

@<TRIPOS>ATOM
      1 C          64.1150   90.0701   13.8097 C.3     1  UNL1        0.0377
      2 C          64.3923   89.0670   14.8899 C.3     1  UNL1        0.0075
      3 C          64.1656   87.6066   14.6334 C.3     1  UNL1        0.0219
      4 C          63.6616   87.1493   13.2966 C.3     1  UNL1        0.0950
      5 N          63.3842   88.1524   12.2164 N.am    1  UNL1       -0.2637
      6 C          62.8802   87.6951   10.8797 C.2     1  UNL1        0.3077
      7 O          62.6029   88.6983    9.7996 O.2     1  UNL1       -0.2522
      8 N          62.6535   86.2347   10.6232 N.am    1  UNL1       -0.2681
      9 C          63.6109   89.6128   12.4730 C.3     1  UNL1        0.0989
     10 H          62.8355   85.5763   11.3321 H       1  UNL1        0.1564
     11 C          62.1494   85.7775    9.2864 C.ar    1  UNL1        0.0516
     12 C          63.0594   85.0294    8.3576 C.ar    1  UNL1        0.0156
     13 C          62.5554   84.5722    7.0210 C.ar    1  UNL1        0.0127
     14 C          61.1416   84.8631    6.6129 C.ar    1  UNL1        0.0578
     15 CL         60.6376   84.4059    5.2761 Cl      1  UNL1       -0.0822
     16 C          60.2317   85.6112    7.5416 C.ar    1  UNL1        0.0127
     17 C          60.7357   86.0684    8.8784 C.ar    1  UNL1        0.0156
     18 C          64.5787   90.9863   14.9032 C.ar    1  UNL1       -0.0212
     19 C          65.9313   91.6291   14.8199 C.ar    1  UNL1       -0.0042
     20 C          66.3949   92.5453   15.9134 C.ar    1  UNL1       -0.0003
     21 C          65.5058   92.8186   17.0902 C.ar    1  UNL1       -0.0000
     22 C          64.1532   92.1757   17.1735 C.ar    1  UNL1       -0.0003
     23 C          63.6896   91.2596   16.0800 C.ar    1  UNL1       -0.0042
     24 C          63.9987   91.3914   13.1093 C.3     1  UNL1        0.0116
     25 C          64.4301   91.5225   11.6787 C.3     1  UNL1        0.0421
     26 O          65.1577   93.7330   10.5236 O.co2   1  UNL1       -0.5492
     27 C          65.5042   92.5009   11.3059 C.2     1  UNL1        0.0503
     28 O          66.9248   92.2473   11.7154 O.co2   1  UNL1       -0.5492
@<TRIPOS>UNITY_ATOM_ATTR
26 1
charge -1
@<TRIPOS>BOND
     1    26    27   ar
     2    27    28   ar
     3    27    25    1
     4    25    24    1
     5    24     1    1
     6     1    18    1
     7    18    19   ar
     8    19    20   ar
     9    20    21   ar
    10    21    22   ar
    11    22    23   ar
    12     1     2    1
    13     2     3    1
    14     3     4    1
    15     4     5    1
    16     5     6   am
    17     6     7    2
    18     6     8   am
    19     8    11    1
    20    11    12   ar
    21    12    13   ar
    22    13    14   ar
    23    14    15    1
    24    14    16   ar
    25    16    17   ar
    26     5     9    1
    27     9     1    1
    28    23    18   ar
    29    17    11   ar
    30     8    10    1
@<TRIPOS>MOLECULE
*****
 28 30 0 0 0
SMALL
GASTEIGER

@<TRIPOS>ATOM
      1 C          61.9064   88.6590   10.2727 C.3     1  UNL1        0.0377
      2 C          61.6570   89.7179    9.2401 C.3     1  UNL1        0.0075
      3 C          62.3677   91.0357    9.3303 C.3     1  UNL1        0.0219
      4 C          63.3279   91.2946   10.4533 C.3     1  UNL1        0.0950
      5 N          63.5774   90.2357   11.4860 N.am    1  UNL1       -0.2637
      6 C          64.5376   90.4946   12.6089 C.2     1  UNL1        0.3077
      7 O          64.7869   89.4356   13.6416 O.2     1  UNL1       -0.2522
      8 N          65.2483   91.8124   12.6992 N.am    1  UNL1       -0.2681
      9 C          62.8666   88.9179   11.3957 C.3     1  UNL1        0.0989
     10 H          65.0846   92.5074   12.0214 H       1  UNL1        0.1564
     11 C          66.2084   92.0712   13.8222 C.ar    1  UNL1        0.0516
     12 C          65.6910   92.4334   15.1828 C.ar    1  UNL1        0.0156
     13 C          66.6511   92.6922   16.3058 C.ar    1  UNL1        0.0127
     14 C          68.1286   92.5889   16.0683 C.ar    1  UNL1        0.0578
     15 CL         69.0887   92.8477   17.1913 Cl      1  UNL1       -0.0822
     16 C          68.6460   92.2267   14.7077 C.ar    1  UNL1        0.0127
     17 C          67.6859   91.9679   13.5847 C.ar    1  UNL1        0.0156
     18 C          60.9130   87.9463    9.4036 C.ar    1  UNL1       -0.0212
     19 C          61.1922   86.5487    8.9360 C.ar    1  UNL1       -0.0042
     20 C          60.1989   85.8361    8.0669 C.ar    1  UNL1       -0.0003
     21 C          58.9263   86.5212    7.6653 C.ar    1  UNL1       -0.0000
     22 C          58.6470   87.9188    8.1329 C.ar    1  UNL1       -0.0003
     23 C          59.6404   88.6313    9.0020 C.ar    1  UNL1       -0.0042
     24 C          61.8109   87.3525   11.0036 C.3     1  UNL1        0.0116
     25 C          62.8995   86.9411   11.9499 C.3     1  UNL1        0.0421
     26 O          62.9800   84.3854   11.4895 O.co2   1  UNL1       -0.5492
     27 C          62.9586   85.5309   12.4577 C.2     1  UNL1        0.0503
     28 O          62.9962   85.2663   13.9337 O.co2   1  UNL1       -0.5492
@<TRIPOS>UNITY_ATOM_ATTR
26 1
charge -1
@<TRIPOS>BOND
     1    26    27   ar
     2    27    28   ar
     3    27    25    1
     4    25    24    1
     5    24     1    1
     6     1    18    1
     7    18    19   ar
     8    19    20   ar
     9    20    21   ar
    10    21    22   ar
    11    22    23   ar
    12     1     2    1
    13     2     3    1
    14     3     4    1
    15     4     5    1
    16     5     6   am
    17     6     7    2
    18     6     8   am
    19     8    11    1
    20    11    12   ar
    21    12    13   ar
    22    13    14   ar
    23    14    15    1
    24    14    16   ar
    25    16    17   ar
    26     5     9    1
    27     9     1    1
    28    23    18   ar
    29    17    11   ar
    30     8    10    1
