@<TRIPOS>MOLECULE
*****
 43 47 0 0 0
SMALL
GASTEIGER

@<TRIPOS>ATOM
      1 C          65.9295   92.7513   10.5922 C.ar    1  UNL1        0.1534
      2 C          66.8215   93.2534   11.6887 C.ar    1  UNL1        0.0573
      3 C          66.4632   92.9987   13.1228 C.ar    1  UNL1        0.0856
      4 N          67.3552   93.5008   14.2193 N.ar    1  UNL1       -0.2429
      5 C          66.9969   93.2461   15.6534 C.ar    1  UNL1        0.1103
      6 C          65.7465   92.4893   15.9911 C.ar    1  UNL1        0.1009
      7 C          64.8545   91.9873   14.8946 C.ar    1  UNL1        0.0610
      8 C          65.2129   92.2420   13.4605 C.ar    1  UNL1        0.0332
      9 C          64.3209   91.7399   12.3640 C.ar    1  UNL1        0.0205
     10 C          64.6792   91.9946   10.9298 C.ar    1  UNL1        0.0849
     11 N          63.7872   91.4925    9.8333 N.am    1  UNL1       -0.2815
     12 C          62.5419   90.7274   10.1708 C.2     1  UNL1        0.2271
     13 O          62.1887   90.4643   11.6047 O.2     1  UNL1       -0.2747
     14 H          64.0190   91.6652    8.8922 H       1  UNL1        0.1549
     15 C          61.6499   90.2253    9.0744 C.3     1  UNL1        0.0970
     16 C          61.1558   88.8092    9.0988 C.3     1  UNL1        0.0679
     17 C          61.8336   87.6503    9.7676 C.3     1  UNL1        0.0247
     18 C          60.9938   86.4282    9.5408 C.3     1  UNL1        0.0696
     19 S          59.7969   86.8319    8.7318 S.3     1  UNL1       -0.0821
     20 S          59.8970   88.3035    8.4586 S.3     1  UNL1       -0.0825
     21 C          65.3881   92.2346   17.4252 C.1     1  UNL1        0.1032
     22 N          65.0298   91.9799   18.8593 N.1     1  UNL1       -0.1907
     23 N          63.6042   91.2306   15.2322 N.pl3   1  UNL1       -0.3119
     24 H          62.7483   91.7088   15.3212 H       1  UNL1        0.1522
     25 C          63.6580   89.7452   15.4343 C.ar    1  UNL1        0.0494
     26 C          64.2736   88.8674   14.3853 C.ar    1  UNL1        0.0178
     27 C          64.3274   87.3820   14.5873 C.ar    1  UNL1        0.0391
     28 C          63.7655   86.7744   15.8384 C.ar    1  UNL1        0.1496
     29 C          63.1500   87.6522   16.8875 C.ar    1  UNL1        0.0928
     30 CL         62.5882   87.0447   18.1386 Cl      1  UNL1       -0.0790
     31 C          63.0962   89.1376   16.6854 C.ar    1  UNL1        0.0291
     32 O          63.8193   85.2891   16.0405 O.3     1  UNL1       -0.4698
     33 C          62.6409   84.4385   15.6692 C.3     1  UNL1        0.2321
     34 C          62.6375   83.6873   14.3710 C.ar    1  UNL1        0.0234
     35 C          62.8384   84.4220   13.0787 C.ar    1  UNL1       -0.0005
     36 C          62.8350   83.6706   11.7804 C.ar    1  UNL1        0.0021
     37 C          62.6307   82.1847   11.7744 C.ar    1  UNL1        0.0296
     38 C          62.4298   81.4499   13.0666 C.ar    1  UNL1        0.1399
     39 F          62.2255   79.9640   13.0605 F       1  UNL1       -0.2042
     40 C          62.4332   82.2012   14.3649 C.ar    1  UNL1        0.0289
     41 O          66.2879   93.0060    9.1581 O.3     1  UNL1       -0.4742
     42 C          68.7876   92.3873    8.8137 C.3     1  UNL1        0.0512
     43 C          67.6869   93.4062    8.7943 C.3     1  UNL1        0.2056
@<TRIPOS>BOND
     1    42    43    1
     2    43    41    1
     3    41     1    1
     4     1     2   ar
     5     2     3   ar
     6     3     4   ar
     7     4     5   ar
     8     5     6   ar
     9     6    21    1
    10    21    22    3
    11     6     7   ar
    12     7    23    1
    13    23    25    1
    14    25    26   ar
    15    26    27   ar
    16    27    28   ar
    17    28    32    1
    18    32    33    1
    19    33    34    1
    20    34    35   ar
    21    35    36   ar
    22    36    37   ar
    23    37    38   ar
    24    38    39    1
    25    38    40   ar
    26    28    29   ar
    27    29    30    1
    28    29    31   ar
    29     7     8   ar
    30     8     9   ar
    31     9    10   ar
    32    10    11    1
    33    11    12   am
    34    12    13    2
    35    12    15    1
    36    15    16    1
    37    16    17    1
    38    17    18    1
    39    18    19    1
    40    19    20    1
    41    10     1   ar
    42    20    16    1
    43     8     3   ar
    44    31    25   ar
    45    40    34   ar
    46    23    24    1
    47    11    14    1
@<TRIPOS>MOLECULE
*****
 43 47 0 0 0
SMALL
GASTEIGER

@<TRIPOS>ATOM
      1 C          60.5852   89.2275   11.0120 C.ar    1  UNL1        0.1534
      2 C          59.7478   88.8795    9.8173 C.ar    1  UNL1        0.0573
      3 C          60.1779   87.7774    8.8951 C.ar    1  UNL1        0.0856
      4 N          59.3404   87.4295    7.7003 N.ar    1  UNL1       -0.2429
      5 C          59.7706   86.3274    6.7781 C.ar    1  UNL1        0.1103
      6 C          61.0383   85.5733    7.0508 C.ar    1  UNL1        0.1009
      7 C          61.8758   85.9212    8.2456 C.ar    1  UNL1        0.0610
      8 C          61.4456   87.0233    9.1678 C.ar    1  UNL1        0.0332
      9 C          62.2830   87.3713   10.3626 C.ar    1  UNL1        0.0205
     10 C          61.8528   88.4734   11.2847 C.ar    1  UNL1        0.0849
     11 N          62.6903   88.8213   12.4795 N.am    1  UNL1       -0.2815
     12 C          63.4906   90.0900   12.4907 C.2     1  UNL1        0.2271
     13 O          63.4533   91.0107   11.3070 O.2     1  UNL1       -0.2747
     14 H          62.7147   88.2170   13.2564 H       1  UNL1        0.1549
     15 C          64.3281   90.4379   13.6855 C.3     1  UNL1        0.0970
     16 C          65.2110   91.6502   13.6551 C.3     1  UNL1        0.0679
     17 C          65.4513   92.5365   12.4691 C.3     1  UNL1        0.0247
     18 C          66.3975   93.6230   12.8864 C.3     1  UNL1        0.0696
     19 S          66.7420   93.4082   14.3304 S.3     1  UNL1       -0.0821
     20 S          66.0087   92.1890   14.8055 S.3     1  UNL1       -0.0825
     21 C          61.4685   84.4712    6.1287 C.1     1  UNL1        0.1032
     22 N          61.8987   83.3691    5.2065 N.1     1  UNL1       -0.1907
     23 N          63.1434   85.1671    8.5183 N.pl3   1  UNL1       -0.3119
     24 H          63.8563   85.1410    7.8398 H       1  UNL1        0.1522
     25 C          63.3249   84.4528    9.8248 C.ar    1  UNL1        0.0494
     26 C          64.3712   83.3861    9.9573 C.ar    1  UNL1        0.0178
     27 C          64.5528   82.6718   11.2636 C.ar    1  UNL1        0.0391
     28 C          63.6880   83.0241   12.4376 C.ar    1  UNL1        0.1496
     29 C          62.6417   84.0907   12.3051 C.ar    1  UNL1        0.0928
     30 CL         61.7770   84.4430   13.4790 Cl      1  UNL1       -0.0790
     31 C          62.4602   84.8051   10.9987 C.ar    1  UNL1        0.0291
     32 O          63.8696   82.3097   13.7440 O.3     1  UNL1       -0.4698
     33 C          64.6417   82.9601   14.8535 C.3     1  UNL1        0.2321
     34 C          64.3311   84.3711   15.2565 C.ar    1  UNL1        0.0234
     35 C          64.9671   85.5169   14.5267 C.ar    1  UNL1       -0.0005
     36 C          64.6565   86.9280   14.9298 C.ar    1  UNL1        0.0021
     37 C          63.7098   87.1932   16.0626 C.ar    1  UNL1        0.0296
     38 C          63.0737   86.0475   16.7924 C.ar    1  UNL1        0.1399
     39 F          62.1270   86.3127   17.9253 F       1  UNL1       -0.2042
     40 C          63.3843   84.6364   16.3894 C.ar    1  UNL1        0.0289
     41 O          60.1550   90.3296   11.9342 O.3     1  UNL1       -0.4742
     42 C          58.2624   88.9580   13.0685 C.3     1  UNL1        0.0512
     43 C          58.8099   90.2719   12.5956 C.3     1  UNL1        0.2056
@<TRIPOS>BOND
     1    42    43    1
     2    43    41    1
     3    41     1    1
     4     1     2   ar
     5     2     3   ar
     6     3     4   ar
     7     4     5   ar
     8     5     6   ar
     9     6    21    1
    10    21    22    3
    11     6     7   ar
    12     7    23    1
    13    23    25    1
    14    25    26   ar
    15    26    27   ar
    16    27    28   ar
    17    28    32    1
    18    32    33    1
    19    33    34    1
    20    34    35   ar
    21    35    36   ar
    22    36    37   ar
    23    37    38   ar
    24    38    39    1
    25    38    40   ar
    26    28    29   ar
    27    29    30    1
    28    29    31   ar
    29     7     8   ar
    30     8     9   ar
    31     9    10   ar
    32    10    11    1
    33    11    12   am
    34    12    13    2
    35    12    15    1
    36    15    16    1
    37    16    17    1
    38    17    18    1
    39    18    19    1
    40    19    20    1
    41    10     1   ar
    42    20    16    1
    43     8     3   ar
    44    31    25   ar
    45    40    34   ar
    46    23    24    1
    47    11    14    1
@<TRIPOS>MOLECULE
*****
 43 47 0 0 0
SMALL
GASTEIGER

@<TRIPOS>ATOM
      1 C          60.3118   90.4827   10.8871 C.ar    1  UNL1        0.1534
      2 C          59.4466   89.9422    9.7875 C.ar    1  UNL1        0.0573
      3 C          59.8761   88.7238    9.0252 C.ar    1  UNL1        0.0856
      4 N          59.0108   88.1834    7.9255 N.ar    1  UNL1       -0.2429
      5 C          59.4404   86.9650    7.1632 C.ar    1  UNL1        0.1103
      6 C          60.7352   86.2871    7.5007 C.ar    1  UNL1        0.1009
      7 C          61.6004   86.8275    8.6004 C.ar    1  UNL1        0.0610
      8 C          61.1709   88.0459    9.3626 C.ar    1  UNL1        0.0332
      9 C          62.0361   88.5863   10.4623 C.ar    1  UNL1        0.0205
     10 C          61.6066   89.8047   11.2245 C.ar    1  UNL1        0.0849
     11 N          62.4719   90.3451   12.3242 N.am    1  UNL1       -0.2815
     12 C          63.4120   89.4333   13.0555 C.2     1  UNL1        0.2271
     13 O          63.4868   87.9811   12.6871 O.2     1  UNL1       -0.2747
     14 H          62.4227   91.2982   12.5660 H       1  UNL1        0.1549
     15 C          64.2773   89.9737   14.1552 C.3     1  UNL1        0.0970
     16 C          65.1253   91.1873   13.9146 C.3     1  UNL1        0.0679
     17 C          66.0788   91.8050   14.8941 C.3     1  UNL1        0.0247
     18 C          66.7115   92.9958   14.2371 C.3     1  UNL1        0.0696
     19 S          66.1490   93.1142   12.8516 S.3     1  UNL1       -0.0821
     20 S          65.1687   91.9965   12.6523 S.3     1  UNL1       -0.0825
     21 C          61.1647   85.0687    6.7384 C.1     1  UNL1        0.1032
     22 N          61.5943   83.8503    5.9762 N.1     1  UNL1       -0.1907
     23 N          62.8952   86.1495    8.9378 N.pl3   1  UNL1       -0.3119
     24 H          63.7300   86.4384    8.5031 H       1  UNL1        0.1522
     25 C          62.9181   85.0313    9.9374 C.ar    1  UNL1        0.0494
     26 C          62.3328   85.2345   11.3035 C.ar    1  UNL1        0.0178
     27 C          62.3557   84.1163   12.3030 C.ar    1  UNL1        0.0391
     28 C          62.9639   82.7950   11.9366 C.ar    1  UNL1        0.1496
     29 C          63.5491   82.5918   10.5705 C.ar    1  UNL1        0.0928
     30 CL         64.1572   81.2706   10.2040 Cl      1  UNL1       -0.0790
     31 C          63.5262   83.7100    9.5709 C.ar    1  UNL1        0.0291
     32 O          62.9867   81.6768   12.9362 O.3     1  UNL1       -0.4698
     33 C          63.5905   81.8950   14.2918 C.3     1  UNL1        0.2321
     34 C          63.6057   83.2688   14.8939 C.ar    1  UNL1        0.0234
     35 C          62.4542   83.7310   15.7367 C.ar    1  UNL1       -0.0005
     36 C          62.4693   85.1048   16.3388 C.ar    1  UNL1        0.0021
     37 C          63.6360   86.0164   16.0980 C.ar    1  UNL1        0.0296
     38 C          64.7875   85.5541   15.2551 C.ar    1  UNL1        0.1399
     39 F          65.9541   86.4657   15.0143 F       1  UNL1       -0.2042
     40 C          64.7723   84.1804   14.6531 C.ar    1  UNL1        0.0289
     41 O          59.8822   91.7010   11.6494 O.3     1  UNL1       -0.4742
     42 C          58.0607   93.5226   11.9866 C.3     1  UNL1        0.0512
     43 C          58.4385   92.1078   11.6615 C.3     1  UNL1        0.2056
@<TRIPOS>BOND
     1    42    43    1
     2    43    41    1
     3    41     1    1
     4     1     2   ar
     5     2     3   ar
     6     3     4   ar
     7     4     5   ar
     8     5     6   ar
     9     6    21    1
    10    21    22    3
    11     6     7   ar
    12     7    23    1
    13    23    25    1
    14    25    26   ar
    15    26    27   ar
    16    27    28   ar
    17    28    32    1
    18    32    33    1
    19    33    34    1
    20    34    35   ar
    21    35    36   ar
    22    36    37   ar
    23    37    38   ar
    24    38    39    1
    25    38    40   ar
    26    28    29   ar
    27    29    30    1
    28    29    31   ar
    29     7     8   ar
    30     8     9   ar
    31     9    10   ar
    32    10    11    1
    33    11    12   am
    34    12    13    2
    35    12    15    1
    36    15    16    1
    37    16    17    1
    38    17    18    1
    39    18    19    1
    40    19    20    1
    41    10     1   ar
    42    20    16    1
    43     8     3   ar
    44    31    25   ar
    45    40    34   ar
    46    23    24    1
    47    11    14    1
@<TRIPOS>MOLECULE
*****
 43 47 0 0 0
SMALL
GASTEIGER

@<TRIPOS>ATOM
      1 C          63.7237   83.6279   14.5284 C.ar    1  UNL1        0.1534
      2 C          63.6531   84.2465   15.8930 C.ar    1  UNL1        0.0573
      3 C          63.5299   85.7345   16.0365 C.ar    1  UNL1        0.0856
      4 N          63.4593   86.3531   17.4012 N.ar    1  UNL1       -0.2429
      5 C          63.3361   87.8412   17.5447 C.ar    1  UNL1        0.1103
      6 C          63.2836   88.7106   16.3234 C.ar    1  UNL1        0.1009
      7 C          63.3543   88.0920   14.9588 C.ar    1  UNL1        0.0610
      8 C          63.4774   86.6040   14.8153 C.ar    1  UNL1        0.0332
      9 C          63.5481   85.9853   13.4507 C.ar    1  UNL1        0.0205
     10 C          63.6712   84.4973   13.3072 C.ar    1  UNL1        0.0849
     11 N          63.7419   83.8787   11.9425 N.am    1  UNL1       -0.2815
     12 C          63.2623   84.6455   10.7458 C.2     1  UNL1        0.2271
     13 O          62.7121   86.0308   10.9138 O.2     1  UNL1       -0.2747
     14 H          64.1030   82.9695   11.8323 H       1  UNL1        0.1549
     15 C          63.3329   84.0269    9.3811 C.3     1  UNL1        0.0970
     16 C          62.4703   84.5543    8.2731 C.3     1  UNL1        0.0679
     17 C          62.6378   84.2642    6.8110 C.3     1  UNL1        0.0247
     18 C          61.5598   84.9949    6.0668 C.3     1  UNL1        0.0696
     19 S          60.7259   85.7368    7.0690 S.3     1  UNL1       -0.0821
     20 S          61.2887   85.4644    8.4326 S.3     1  UNL1       -0.0825
     21 C          63.1605   90.1987   16.4669 C.1     1  UNL1        0.1032
     22 N          63.0374   91.6867   16.6104 N.1     1  UNL1       -0.1907
     23 N          63.3018   88.9614   13.7376 N.pl3   1  UNL1       -0.3119
     24 H          62.6665   88.7561   13.0141 H       1  UNL1        0.1522
     25 C          64.2173   90.1437   13.6188 C.ar    1  UNL1        0.0494
     26 C          63.9253   91.2205   12.6161 C.ar    1  UNL1        0.0178
     27 C          64.8408   92.4028   12.4972 C.ar    1  UNL1        0.0391
     28 C          66.0482   92.5083   13.3810 C.ar    1  UNL1        0.1496
     29 C          66.3402   91.4315   14.3837 C.ar    1  UNL1        0.0928
     30 CL         67.5476   91.5370   15.2674 Cl      1  UNL1       -0.0790
     31 C          65.4247   90.2492   14.5025 C.ar    1  UNL1        0.0291
     32 O          66.9637   93.6906   13.2621 O.3     1  UNL1       -0.4698
     33 C          66.5206   94.9094   12.5083 C.3     1  UNL1        0.2321
     34 C          66.7574   95.0043   11.0302 C.ar    1  UNL1        0.0234
     35 C          66.3075   96.2198   10.2751 C.ar    1  UNL1       -0.0005
     36 C          66.5443   96.3146    8.7969 C.ar    1  UNL1        0.0021
     37 C          67.2309   95.1940    8.0739 C.ar    1  UNL1        0.0296
     38 C          67.6808   93.9786    8.8290 C.ar    1  UNL1        0.1399
     39 F          68.3674   92.8580    8.1060 F       1  UNL1       -0.2042
     40 C          67.4440   93.8837   10.3071 C.ar    1  UNL1        0.0289
     41 O          63.8469   82.1399   14.3849 O.3     1  UNL1       -0.4742
     42 C          62.5463   80.4122   12.9449 C.3     1  UNL1        0.0512
     43 C          62.6232   81.3055   14.1475 C.3     1  UNL1        0.2056
@<TRIPOS>BOND
     1    42    43    1
     2    43    41    1
     3    41     1    1
     4     1     2   ar
     5     2     3   ar
     6     3     4   ar
     7     4     5   ar
     8     5     6   ar
     9     6    21    1
    10    21    22    3
    11     6     7   ar
    12     7    23    1
    13    23    25    1
    14    25    26   ar
    15    26    27   ar
    16    27    28   ar
    17    28    32    1
    18    32    33    1
    19    33    34    1
    20    34    35   ar
    21    35    36   ar
    22    36    37   ar
    23    37    38   ar
    24    38    39    1
    25    38    40   ar
    26    28    29   ar
    27    29    30    1
    28    29    31   ar
    29     7     8   ar
    30     8     9   ar
    31     9    10   ar
    32    10    11    1
    33    11    12   am
    34    12    13    2
    35    12    15    1
    36    15    16    1
    37    16    17    1
    38    17    18    1
    39    18    19    1
    40    19    20    1
    41    10     1   ar
    42    20    16    1
    43     8     3   ar
    44    31    25   ar
    45    40    34   ar
    46    23    24    1
    47    11    14    1
@<TRIPOS>MOLECULE
*****
 43 47 0 0 0
SMALL
GASTEIGER

@<TRIPOS>ATOM
      1 C          63.4852   83.9914   14.3771 C.ar    1  UNL1        0.1534
      2 C          63.2848   84.6084   15.7295 C.ar    1  UNL1        0.0573
      3 C          63.3147   86.1000   15.8853 C.ar    1  UNL1        0.0856
      4 N          63.1144   86.7169   17.2378 N.ar    1  UNL1       -0.2429
      5 C          63.1443   88.2085   17.3936 C.ar    1  UNL1        0.1103
      6 C          63.3745   89.0831   16.1969 C.ar    1  UNL1        0.1009
      7 C          63.5749   88.4662   14.8444 C.ar    1  UNL1        0.0610
      8 C          63.5450   86.9746   14.6886 C.ar    1  UNL1        0.0332
      9 C          63.7454   86.3576   13.3362 C.ar    1  UNL1        0.0205
     10 C          63.7155   84.8660   13.1804 C.ar    1  UNL1        0.0849
     11 N          63.9158   84.2490   11.8279 N.am    1  UNL1       -0.2815
     12 C          63.1487   84.7654   10.6469 C.2     1  UNL1        0.2271
     13 O          62.1811   85.8988   10.8184 O.2     1  UNL1       -0.2747
     14 H          64.5509   83.5052   11.7153 H       1  UNL1        0.1549
     15 C          63.3490   84.1485    9.2944 C.3     1  UNL1        0.0970
     16 C          62.4895   84.5742    8.1411 C.3     1  UNL1        0.0679
     17 C          62.7194   84.2356    6.6981 C.3     1  UNL1        0.0247
     18 C          61.6211   84.8653    5.8935 C.3     1  UNL1        0.0696
     19 S          60.7124   85.5930    6.8393 S.3     1  UNL1       -0.0821
     20 S          61.2491   85.4131    8.2284 S.3     1  UNL1       -0.0825
     21 C          63.4044   90.5747   16.3527 C.1     1  UNL1        0.1032
     22 N          63.4343   92.0663   16.5085 N.1     1  UNL1       -0.1907
     23 N          63.8052   89.3408   13.6478 N.pl3   1  UNL1       -0.3119
     24 H          64.6291   89.8753   13.5800 H       1  UNL1        0.1522
     25 C          62.7800   89.4010   12.5544 C.ar    1  UNL1        0.0494
     26 C          63.1968   89.2207   11.1248 C.ar    1  UNL1        0.0178
     27 C          62.1717   89.2809   10.0314 C.ar    1  UNL1        0.0391
     28 C          60.7297   89.5214   10.3676 C.ar    1  UNL1        0.1496
     29 C          60.3129   89.7016   11.7972 C.ar    1  UNL1        0.0928
     30 CL         58.8710   89.9421   12.1334 Cl      1  UNL1       -0.0790
     31 C          61.3381   89.6414   12.8906 C.ar    1  UNL1        0.0291
     32 O          59.7047   89.5816    9.2742 O.3     1  UNL1       -0.4698
     33 C          60.0644   89.1475    7.8841 C.3     1  UNL1        0.2321
     34 C          59.6504   89.9806    6.7075 C.ar    1  UNL1        0.0234
     35 C          60.6917   90.5818    5.8107 C.ar    1  UNL1       -0.0005
     36 C          60.2776   91.4150    4.6340 C.ar    1  UNL1        0.0021
     37 C          58.8223   91.6469    4.3542 C.ar    1  UNL1        0.0296
     38 C          57.7810   91.0457    5.2511 C.ar    1  UNL1        0.1399
     39 F          56.3258   91.2776    4.9713 F       1  UNL1       -0.2042
     40 C          58.1950   90.2126    6.4277 C.ar    1  UNL1        0.0289
     41 O          63.4553   82.4998   14.2213 O.3     1  UNL1       -0.4742
     42 C          62.2330   80.4129   13.2722 C.3     1  UNL1        0.0512
     43 C          62.1877   81.8145   13.8047 C.3     1  UNL1        0.2056
@<TRIPOS>BOND
     1    42    43    1
     2    43    41    1
     3    41     1    1
     4     1     2   ar
     5     2     3   ar
     6     3     4   ar
     7     4     5   ar
     8     5     6   ar
     9     6    21    1
    10    21    22    3
    11     6     7   ar
    12     7    23    1
    13    23    25    1
    14    25    26   ar
    15    26    27   ar
    16    27    28   ar
    17    28    32    1
    18    32    33    1
    19    33    34    1
    20    34    35   ar
    21    35    36   ar
    22    36    37   ar
    23    37    38   ar
    24    38    39    1
    25    38    40   ar
    26    28    29   ar
    27    29    30    1
    28    29    31   ar
    29     7     8   ar
    30     8     9   ar
    31     9    10   ar
    32    10    11    1
    33    11    12   am
    34    12    13    2
    35    12    15    1
    36    15    16    1
    37    16    17    1
    38    17    18    1
    39    18    19    1
    40    19    20    1
    41    10     1   ar
    42    20    16    1
    43     8     3   ar
    44    31    25   ar
    45    40    34   ar
    46    23    24    1
    47    11    14    1
@<TRIPOS>MOLECULE
*****
 43 47 0 0 0
SMALL
GASTEIGER

@<TRIPOS>ATOM
      1 C          63.7896   84.2058   15.4057 C.ar    1  UNL1        0.1534
      2 C          63.4121   85.0269   16.6029 C.ar    1  UNL1        0.0573
      3 C          63.4331   86.5245   16.5221 C.ar    1  UNL1        0.0856
      4 N          63.0555   87.3456   17.7193 N.ar    1  UNL1       -0.2429
      5 C          63.0764   88.8433   17.6385 C.ar    1  UNL1        0.1103
      6 C          63.4749   89.5199   16.3604 C.ar    1  UNL1        0.1009
      7 C          63.8524   88.6988   15.1632 C.ar    1  UNL1        0.0610
      8 C          63.8315   87.2012   15.2440 C.ar    1  UNL1        0.0332
      9 C          64.2090   86.3801   14.0468 C.ar    1  UNL1        0.0205
     10 C          64.1881   84.8824   14.1277 C.ar    1  UNL1        0.0849
     11 N          64.5656   84.0614   12.9304 N.am    1  UNL1       -0.2815
     12 C          63.5467   83.7713   11.8684 C.2     1  UNL1        0.2271
     13 O          62.1503   84.3022   12.0038 O.2     1  UNL1       -0.2747
     14 H          65.4821   83.7129   12.8416 H       1  UNL1        0.1549
     15 C          63.9242   82.9503   10.6712 C.3     1  UNL1        0.0970
     16 C          63.4801   81.5210   10.5716 C.3     1  UNL1        0.0679
     17 C          63.3554   80.7224    9.3080 C.3     1  UNL1        0.0247
     18 C          62.8809   79.3472    9.6736 C.3     1  UNL1        0.0696
     19 S          62.7124   79.2958   11.1633 S.3     1  UNL1       -0.0821
     20 S          63.0827   80.6393   11.7182 S.3     1  UNL1       -0.0825
     21 C          63.4958   91.0176   16.2796 C.1     1  UNL1        0.1032
     22 N          63.5167   92.5152   16.1987 N.1     1  UNL1       -0.1907
     23 N          64.2508   89.3755   13.8852 N.pl3   1  UNL1       -0.3119
     24 H          65.1578   89.7453   13.7860 H       1  UNL1        0.1522
     25 C          63.2673   89.4886   12.7582 C.ar    1  UNL1        0.0494
     26 C          63.7329   89.9098   11.3959 C.ar    1  UNL1        0.0178
     27 C          62.7495   90.0229   10.2689 C.ar    1  UNL1        0.0391
     28 C          61.3004   89.7148   10.5042 C.ar    1  UNL1        0.1496
     29 C          60.8348   89.2936   11.8665 C.ar    1  UNL1        0.0928
     30 CL         59.3858   88.9855   12.1018 Cl      1  UNL1       -0.0790
     31 C          61.8183   89.1805   12.9935 C.ar    1  UNL1        0.0291
     32 O          60.3170   89.8279    9.3772 O.3     1  UNL1       -0.4698
     33 C          59.7418   88.5893    8.7566 C.3     1  UNL1        0.2321
     34 C          60.6272   87.4126    8.4717 C.ar    1  UNL1        0.0234
     35 C          61.8988   87.2260    9.2452 C.ar    1  UNL1       -0.0005
     36 C          62.7842   86.0491    8.9603 C.ar    1  UNL1        0.0021
     37 C          62.3981   85.0590    7.9017 C.ar    1  UNL1        0.0296
     38 C          61.1265   85.2456    7.1282 C.ar    1  UNL1        0.1399
     39 F          60.7404   84.2554    6.0697 F       1  UNL1       -0.2042
     40 C          60.2411   86.4224    7.4131 C.ar    1  UNL1        0.0289
     41 O          63.7687   82.7081   15.4865 O.3     1  UNL1       -0.4742
     42 C          61.4473   82.0815   14.5025 C.3     1  UNL1        0.0512
     43 C          62.9381   81.9164   14.5205 C.3     1  UNL1        0.2056
@<TRIPOS>BOND
     1    42    43    1
     2    43    41    1
     3    41     1    1
     4     1     2   ar
     5     2     3   ar
     6     3     4   ar
     7     4     5   ar
     8     5     6   ar
     9     6    21    1
    10    21    22    3
    11     6     7   ar
    12     7    23    1
    13    23    25    1
    14    25    26   ar
    15    26    27   ar
    16    27    28   ar
    17    28    32    1
    18    32    33    1
    19    33    34    1
    20    34    35   ar
    21    35    36   ar
    22    36    37   ar
    23    37    38   ar
    24    38    39    1
    25    38    40   ar
    26    28    29   ar
    27    29    30    1
    28    29    31   ar
    29     7     8   ar
    30     8     9   ar
    31     9    10   ar
    32    10    11    1
    33    11    12   am
    34    12    13    2
    35    12    15    1
    36    15    16    1
    37    16    17    1
    38    17    18    1
    39    18    19    1
    40    19    20    1
    41    10     1   ar
    42    20    16    1
    43     8     3   ar
    44    31    25   ar
    45    40    34   ar
    46    23    24    1
    47    11    14    1
@<TRIPOS>MOLECULE
*****
 43 47 0 0 0
SMALL
GASTEIGER

@<TRIPOS>ATOM
      1 C          64.7556   95.5197   -0.1934 C.ar    1  UNL1        0.1534
      2 C          64.8599   96.1804   -1.5360 C.ar    1  UNL1        0.0573
      3 C          63.9079   95.8049   -2.6327 C.ar    1  UNL1        0.0856
      4 N          64.0122   96.4657   -3.9753 N.ar    1  UNL1       -0.2429
      5 C          63.0602   96.0903   -5.0720 C.ar    1  UNL1        0.1103
      6 C          62.0038   95.0541   -4.8260 C.ar    1  UNL1        0.1009
      7 C          61.8995   94.3933   -3.4835 C.ar    1  UNL1        0.0610
      8 C          62.8515   94.7688   -2.3868 C.ar    1  UNL1        0.0332
      9 C          62.7472   94.1081   -1.0442 C.ar    1  UNL1        0.0205
     10 C          63.6992   94.4835    0.0525 C.ar    1  UNL1        0.0849
     11 N          63.5949   93.8227    1.3951 N.am    1  UNL1       -0.2815
     12 C          62.6474   92.6773    1.5956 C.2     1  UNL1        0.2271
     13 O          61.8042   92.1926    0.4535 O.2     1  UNL1       -0.2747
     14 H          64.1482   94.1408    2.1446 H       1  UNL1        0.1549
     15 C          62.5430   92.0165    2.9381 C.3     1  UNL1        0.0970
     16 C          61.2156   91.9328    3.6317 C.3     1  UNL1        0.0679
     17 C          60.8701   91.0149    4.7666 C.3     1  UNL1        0.0247
     18 C          59.4416   91.2670    5.1484 C.3     1  UNL1        0.0696
     19 S          58.9042   92.3408    4.2495 S.3     1  UNL1       -0.0821
     20 S          60.0005   92.7522    3.3121 S.3     1  UNL1       -0.0825
     21 C          61.0518   94.6786   -5.9227 C.1     1  UNL1        0.1032
     22 N          60.0998   94.3032   -7.0194 N.1     1  UNL1       -0.1907
     23 N          60.8432   93.3572   -3.2376 N.pl3   1  UNL1       -0.3119
     24 H          61.0429   92.4051   -3.3889 H       1  UNL1        0.1522
     25 C          59.4825   93.7716   -2.7612 C.ar    1  UNL1        0.0494
     26 C          59.2558   95.1678   -2.2618 C.ar    1  UNL1        0.0178
     27 C          57.8952   95.5823   -1.7854 C.ar    1  UNL1        0.0391
     28 C          56.7613   94.6005   -1.8083 C.ar    1  UNL1        0.1496
     29 C          56.9880   93.2044   -2.3077 C.ar    1  UNL1        0.0928
     30 CL         55.8541   92.2227   -2.3307 Cl      1  UNL1       -0.0790
     31 C          58.3487   92.7899   -2.7841 C.ar    1  UNL1        0.0291
     32 O          55.4007   95.0150   -1.3319 O.3     1  UNL1       -0.4698
     33 C          54.7867   96.2888   -1.8323 C.3     1  UNL1        0.2321
     34 C          53.6289   96.2398   -2.7847 C.ar    1  UNL1        0.0234
     35 C          52.2267   96.1643   -2.2575 C.ar    1  UNL1       -0.0005
     36 C          51.0689   96.1153   -3.2100 C.ar    1  UNL1        0.0021
     37 C          51.3134   96.1416   -4.6897 C.ar    1  UNL1        0.0296
     38 C          52.7156   96.2171   -5.2169 C.ar    1  UNL1        0.1399
     39 F          52.9601   96.2435   -6.6966 F       1  UNL1       -0.2042
     40 C          53.8734   96.2661   -4.2645 C.ar    1  UNL1        0.0289
     41 O          65.7076   95.8951    0.9033 O.3     1  UNL1       -0.4742
     42 C          65.1703   96.3946    3.3956 C.3     1  UNL1        0.0512
     43 C          65.2788   96.8558    1.9724 C.3     1  UNL1        0.2056
@<TRIPOS>BOND
     1    42    43    1
     2    43    41    1
     3    41     1    1
     4     1     2   ar
     5     2     3   ar
     6     3     4   ar
     7     4     5   ar
     8     5     6   ar
     9     6    21    1
    10    21    22    3
    11     6     7   ar
    12     7    23    1
    13    23    25    1
    14    25    26   ar
    15    26    27   ar
    16    27    28   ar
    17    28    32    1
    18    32    33    1
    19    33    34    1
    20    34    35   ar
    21    35    36   ar
    22    36    37   ar
    23    37    38   ar
    24    38    39    1
    25    38    40   ar
    26    28    29   ar
    27    29    30    1
    28    29    31   ar
    29     7     8   ar
    30     8     9   ar
    31     9    10   ar
    32    10    11    1
    33    11    12   am
    34    12    13    2
    35    12    15    1
    36    15    16    1
    37    16    17    1
    38    17    18    1
    39    18    19    1
    40    19    20    1
    41    10     1   ar
    42    20    16    1
    43     8     3   ar
    44    31    25   ar
    45    40    34   ar
    46    23    24    1
    47    11    14    1
@<TRIPOS>MOLECULE
*****
 43 47 0 0 0
SMALL
GASTEIGER

@<TRIPOS>ATOM
      1 C          63.7398   83.7107   15.0851 C.ar    1  UNL1        0.1534
      2 C          63.4562   84.6639   16.2080 C.ar    1  UNL1        0.0573
      3 C          63.4927   86.1433   15.9632 C.ar    1  UNL1        0.0856
      4 N          63.2092   87.0965   17.0862 N.ar    1  UNL1       -0.2429
      5 C          63.2457   88.5760   16.8415 C.ar    1  UNL1        0.1103
      6 C          63.5658   89.1022   15.4737 C.ar    1  UNL1        0.1009
      7 C          63.8493   88.1490   14.3508 C.ar    1  UNL1        0.0610
      8 C          63.8128   86.6696   14.5956 C.ar    1  UNL1        0.0332
      9 C          64.0963   85.7164   13.4727 C.ar    1  UNL1        0.0205
     10 C          64.0598   84.2369   13.7174 C.ar    1  UNL1        0.0849
     11 N          64.3434   83.2837   12.5944 N.am    1  UNL1       -0.2815
     12 C          63.3585   83.1312   11.4734 C.2     1  UNL1        0.2271
     13 O          62.0901   83.9320   11.4753 O.2     1  UNL1       -0.2747
     14 H          65.1759   82.7582   12.5932 H       1  UNL1        0.1549
     15 C          63.6420   82.1781   10.3504 C.3     1  UNL1        0.0970
     16 C          63.2411   80.7376   10.4700 C.3     1  UNL1        0.0679
     17 C          63.0996   79.7648    9.3371 C.3     1  UNL1        0.0247
     18 C          62.6824   78.4430    9.9105 C.3     1  UNL1        0.0696
     19 S          62.5660   78.5989   11.3978 S.3     1  UNL1       -0.0821
     20 S          62.9114   80.0170   11.7436 S.3     1  UNL1       -0.0825
     21 C          63.6023   90.5817   15.2289 C.1     1  UNL1        0.1032
     22 N          63.6388   92.0611   14.9841 N.1     1  UNL1       -0.1907
     23 N          64.1694   88.6753   12.9831 N.pl3   1  UNL1       -0.3119
     24 H          65.0967   88.9106   12.7508 H       1  UNL1        0.1522
     25 C          63.0765   88.8429   11.9693 C.ar    1  UNL1        0.0494
     26 C          62.6341   90.2177   11.5639 C.ar    1  UNL1        0.0178
     27 C          61.5414   90.3854   10.5502 C.ar    1  UNL1        0.0391
     28 C          60.8910   89.1783    9.9418 C.ar    1  UNL1        0.1496
     29 C          61.3334   87.8036   10.3472 C.ar    1  UNL1        0.0928
     30 CL         60.6830   86.5966    9.7388 Cl      1  UNL1       -0.0790
     31 C          62.4262   87.6359   11.3610 C.ar    1  UNL1        0.0291
     32 O          59.7982   89.3460    8.9280 O.3     1  UNL1       -0.4698
     33 C          60.0694   89.0657    7.4796 C.3     1  UNL1        0.2321
     34 C          59.5342   89.9876    6.4243 C.ar    1  UNL1        0.0234
     35 C          58.0533   90.1617    6.2613 C.ar    1  UNL1       -0.0005
     36 C          57.5182   91.0836    5.2059 C.ar    1  UNL1        0.0021
     37 C          58.4640   91.8314    4.3136 C.ar    1  UNL1        0.0296
     38 C          59.9449   91.6573    4.4766 C.ar    1  UNL1        0.1399
     39 F          60.8907   92.4051    3.5843 F       1  UNL1       -0.2042
     40 C          60.4800   90.7355    5.5319 C.ar    1  UNL1        0.0289
     41 O          63.7033   82.2312   15.3299 O.3     1  UNL1       -0.4742
     42 C          61.3205   81.9221   14.3415 C.3     1  UNL1        0.0512
     43 C          62.6898   81.3792   14.6250 C.3     1  UNL1        0.2056
@<TRIPOS>BOND
     1    42    43    1
     2    43    41    1
     3    41     1    1
     4     1     2   ar
     5     2     3   ar
     6     3     4   ar
     7     4     5   ar
     8     5     6   ar
     9     6    21    1
    10    21    22    3
    11     6     7   ar
    12     7    23    1
    13    23    25    1
    14    25    26   ar
    15    26    27   ar
    16    27    28   ar
    17    28    32    1
    18    32    33    1
    19    33    34    1
    20    34    35   ar
    21    35    36   ar
    22    36    37   ar
    23    37    38   ar
    24    38    39    1
    25    38    40   ar
    26    28    29   ar
    27    29    30    1
    28    29    31   ar
    29     7     8   ar
    30     8     9   ar
    31     9    10   ar
    32    10    11    1
    33    11    12   am
    34    12    13    2
    35    12    15    1
    36    15    16    1
    37    16    17    1
    38    17    18    1
    39    18    19    1
    40    19    20    1
    41    10     1   ar
    42    20    16    1
    43     8     3   ar
    44    31    25   ar
    45    40    34   ar
    46    23    24    1
    47    11    14    1
@<TRIPOS>MOLECULE
*****
 43 47 0 0 0
SMALL
GASTEIGER

@<TRIPOS>ATOM
      1 C          63.2037   91.2298   10.3187 C.ar    1  UNL1        0.1534
      2 C          64.4117   92.0861   10.5581 C.ar    1  UNL1        0.0573
      3 C          64.9607   92.2376   11.9458 C.ar    1  UNL1        0.0856
      4 N          66.1688   93.0940   12.1851 N.ar    1  UNL1       -0.2429
      5 C          66.7177   93.2455   13.5728 C.ar    1  UNL1        0.1103
      6 C          66.0586   92.5406   14.7211 C.ar    1  UNL1        0.1009
      7 C          64.8506   91.6842   14.4818 C.ar    1  UNL1        0.0610
      8 C          64.3017   91.5327   13.0941 C.ar    1  UNL1        0.0332
      9 C          63.0937   90.6764   12.8548 C.ar    1  UNL1        0.0205
     10 C          62.5447   90.5249   11.4671 C.ar    1  UNL1        0.0849
     11 N          61.3366   89.6685   11.2278 N.am    1  UNL1       -0.2815
     12 C          61.4749   88.1760   11.1697 C.2     1  UNL1        0.2271
     13 O          62.8213   87.5399   11.3509 O.2     1  UNL1       -0.2747
     14 H          60.4530   90.0860   11.1089 H       1  UNL1        0.1549
     15 C          60.2670   87.3196   10.9304 C.3     1  UNL1        0.0970
     16 C          59.9588   86.8270    9.5475 C.3     1  UNL1        0.0679
     17 C          58.6941   87.0817    8.7823 C.3     1  UNL1        0.0247
     18 C          58.8149   86.4054    7.4489 C.3     1  UNL1        0.0696
     19 S          60.1543   85.7326    7.3900 S.3     1  UNL1       -0.0821
     20 S          60.8612   85.9932    8.6871 S.3     1  UNL1       -0.0825
     21 C          66.6076   92.6921   16.1088 C.1     1  UNL1        0.1032
     22 N          67.1566   92.8436   17.4965 N.1     1  UNL1       -0.1907
     23 N          64.1916   90.9794   15.6302 N.pl3   1  UNL1       -0.3119
     24 H          63.8396   91.4979   16.3894 H       1  UNL1        0.1522
     25 C          64.0689   89.4843   15.6218 C.ar    1  UNL1        0.0494
     26 C          64.6897   88.6871   14.5132 C.ar    1  UNL1        0.0178
     27 C          64.5671   87.1922   14.5048 C.ar    1  UNL1        0.0391
     28 C          63.8236   86.4944   15.6050 C.ar    1  UNL1        0.1496
     29 C          63.2028   87.2917   16.7136 C.ar    1  UNL1        0.0928
     30 CL         62.4594   86.5940   17.8139 Cl      1  UNL1       -0.0790
     31 C          63.3255   88.7867   16.7220 C.ar    1  UNL1        0.0291
     32 O          63.7010   84.9995   15.5966 O.3     1  UNL1       -0.4698
     33 C          62.5327   84.3466   14.9192 C.3     1  UNL1        0.2321
     34 C          62.7483   83.5092   13.6936 C.ar    1  UNL1        0.0234
     35 C          62.4995   82.0308   13.7421 C.ar    1  UNL1       -0.0005
     36 C          62.7152   81.1933   12.5164 C.ar    1  UNL1        0.0021
     37 C          63.1796   81.8343   11.2423 C.ar    1  UNL1        0.0296
     38 C          63.4284   83.3128   11.1938 C.ar    1  UNL1        0.1399
     39 F          63.8929   83.9538    9.9197 F       1  UNL1       -0.2042
     40 C          63.2128   84.1502   12.4194 C.ar    1  UNL1        0.0289
     41 O          62.6547   91.0783    8.9311 O.3     1  UNL1       -0.4742
     42 C          60.3561   90.1122    8.2012 C.3     1  UNL1        0.0512
     43 C          61.7891   89.9014    8.5913 C.3     1  UNL1        0.2056
@<TRIPOS>BOND
     1    42    43    1
     2    43    41    1
     3    41     1    1
     4     1     2   ar
     5     2     3   ar
     6     3     4   ar
     7     4     5   ar
     8     5     6   ar
     9     6    21    1
    10    21    22    3
    11     6     7   ar
    12     7    23    1
    13    23    25    1
    14    25    26   ar
    15    26    27   ar
    16    27    28   ar
    17    28    32    1
    18    32    33    1
    19    33    34    1
    20    34    35   ar
    21    35    36   ar
    22    36    37   ar
    23    37    38   ar
    24    38    39    1
    25    38    40   ar
    26    28    29   ar
    27    29    30    1
    28    29    31   ar
    29     7     8   ar
    30     8     9   ar
    31     9    10   ar
    32    10    11    1
    33    11    12   am
    34    12    13    2
    35    12    15    1
    36    15    16    1
    37    16    17    1
    38    17    18    1
    39    18    19    1
    40    19    20    1
    41    10     1   ar
    42    20    16    1
    43     8     3   ar
    44    31    25   ar
    45    40    34   ar
    46    23    24    1
    47    11    14    1
