@<TRIPOS>MOLECULE
*****
 35 38 0 0 0
SMALL
GASTEIGER

@<TRIPOS>ATOM
      1 C          62.3341   89.8953   10.9614 C.2     1  UNL1        0.2457
      2 O          61.3576   90.7601   11.7019 O.2     1  UNL1       -0.2702
      3 N          63.6105   90.4841   10.4377 N.am    1  UNL1       -0.3005
      4 H          64.2515   89.9165    9.9517 H       1  UNL1        0.1497
      5 C          63.5167   87.8309   12.7890 C.3     1  UNL1        0.0341
      6 C          62.6256   87.4095   11.6583 C.ar    1  UNL1        0.0141
      7 C          62.3258   85.9558   11.4414 C.ar    1  UNL1        0.1277
      8 N          61.4348   85.5343   10.3108 N.ar    1  UNL1       -0.2310
      9 C          60.8435   86.5665    9.3969 C.ar    1  UNL1        0.0828
     10 C          59.9524   86.1450    8.2663 C.ar    1  UNL1        0.0197
     11 C          59.3612   87.1772    7.3526 C.ar    1  UNL1        0.0082
     12 C          59.6610   88.6308    7.5694 C.ar    1  UNL1        0.0347
     13 BR         59.0696   89.6630    6.6556 Br      1  UNL1       -0.0490
     14 C          60.5520   89.0523    8.7000 C.ar    1  UNL1        0.0083
     15 C          61.1433   88.0201    9.6138 C.ar    1  UNL1        0.0223
     16 C          62.0343   88.4416   10.7445 C.ar    1  UNL1        0.0535
     17 N          62.9172   84.9236   12.3552 N.pl3   1  UNL1       -0.2935
     18 C          62.5358   84.6919   13.7873 C.3     1  UNL1        0.0922
     19 C          63.3766   83.5670   14.3146 C.3     1  UNL1        0.0232
     20 C          64.2775   83.1037   13.2083 C.3     1  UNL1        0.0232
     21 C          63.9935   83.9421   11.9974 C.3     1  UNL1        0.0922
     22 C          63.9103   91.9377   10.6545 C.3     1  UNL1        0.0940
     23 C          65.1923   92.3486   11.3159 C.3     1  UNL1        0.0431
     24 C          66.3275   92.8756   10.4891 C.ar    1  UNL1       -0.0103
     25 C          67.3837   91.9392    9.9817 C.ar    1  UNL1       -0.0034
     26 C          68.5189   92.4662    9.1548 C.ar    1  UNL1       -0.0003
     27 C          68.5977   93.9296    8.8353 C.ar    1  UNL1        0.0008
     28 C          67.5414   94.8661    9.3426 C.ar    1  UNL1        0.0111
     29 C          66.4063   94.3391   10.1695 C.ar    1  UNL1        0.0537
     30 CL         65.3501   95.2755   10.6768 Cl      1  UNL1       -0.0826
     31 C          65.3393   92.2325   12.8042 C.3     1  UNL1        0.0120
     32 C          66.4853   92.9056   13.4995 C.3     1  UNL1        0.0421
     33 C          67.6682   92.0996   13.9480 C.2     1  UNL1        0.0503
     34 O          68.8112   91.8578   13.0073 O.co2   1  UNL1       -0.5492
     35 O          67.7081   91.5355   15.3374 O.co2   1  UNL1       -0.5492
@<TRIPOS>UNITY_ATOM_ATTR
34 1
charge -1
@<TRIPOS>BOND
     1     5     6    1
     2     6     7   ar
     3     7    17    1
     4    17    18    1
     5    18    19    1
     6    19    20    1
     7    20    21    1
     8     7     8   ar
     9     8     9   ar
    10     9    10   ar
    11    10    11   ar
    12    11    12   ar
    13    12    13    1
    14    12    14   ar
    15    14    15   ar
    16    15    16   ar
    17    16     1    1
    18     1     2    2
    19     1     3   am
    20     3    22    1
    21    23    22    1
    22    23    31    1
    23    31    32    1
    24    32    33    1
    25    33    34   ar
    26    33    35   ar
    27    23    24    1
    28    24    25   ar
    29    25    26   ar
    30    26    27   ar
    31    27    28   ar
    32    28    29   ar
    33    29    30    1
    34    16     6   ar
    35    29    24   ar
    36    21    17    1
    37    15     9   ar
    38     3     4    1
@<TRIPOS>MOLECULE
*****
 35 38 0 0 0
SMALL
GASTEIGER

@<TRIPOS>ATOM
      1 C          62.2215   89.7411   11.0361 C.2     1  UNL1        0.2457
      2 O          61.2794   90.5130   11.9116 O.2     1  UNL1       -0.2702
      3 N          63.4204   90.4198   10.4428 N.am    1  UNL1       -0.3005
      4 H          64.0388   89.9131    9.8682 H       1  UNL1        0.1497
      5 C          63.4293   87.6338   12.7971 C.3     1  UNL1        0.0341
      6 C          62.5686   87.2368   11.6344 C.ar    1  UNL1        0.0141
      7 C          62.3119   85.7861   11.3523 C.ar    1  UNL1        0.1277
      8 N          61.4513   85.3890   10.1897 N.ar    1  UNL1       -0.2310
      9 C          60.8473   86.4426    9.3092 C.ar    1  UNL1        0.0828
     10 C          59.9867   86.0456    8.1466 C.ar    1  UNL1        0.0197
     11 C          59.3829   87.0992    7.2662 C.ar    1  UNL1        0.0082
     12 C          59.6396   88.5498    7.5483 C.ar    1  UNL1        0.0347
     13 BR         59.0357   89.6035    6.6678 Br      1  UNL1       -0.0490
     14 C          60.5002   88.9469    8.7109 C.ar    1  UNL1        0.0083
     15 C          61.1041   87.8933    9.5913 C.ar    1  UNL1        0.0223
     16 C          61.9647   88.2904   10.7540 C.ar    1  UNL1        0.0535
     17 N          62.9158   84.7325   12.2328 N.pl3   1  UNL1       -0.2935
     18 C          64.0147   83.7864   11.8489 C.3     1  UNL1        0.0922
     19 C          64.3050   82.9091   13.0306 C.3     1  UNL1        0.0232
     20 C          63.3854   83.3131   14.1447 C.3     1  UNL1        0.0232
     21 C          62.5269   84.4400   13.6516 C.3     1  UNL1        0.0922
     22 C          63.6771   91.8705   10.7249 C.3     1  UNL1        0.0940
     23 C          65.0408   92.3203   11.1583 C.3     1  UNL1        0.0431
     24 C          65.4161   92.2845   12.6102 C.ar    1  UNL1       -0.0103
     25 C          65.1020   91.0725   13.4363 C.ar    1  UNL1       -0.0034
     26 C          65.4773   91.0367   14.8882 C.ar    1  UNL1       -0.0003
     27 C          66.1667   92.2128   15.5139 C.ar    1  UNL1        0.0008
     28 C          66.4808   93.4247   14.6877 C.ar    1  UNL1        0.0111
     29 C          66.1056   93.4606   13.2359 C.ar    1  UNL1        0.0537
     30 CL         66.4197   94.6725   12.4098 Cl      1  UNL1       -0.0826
     31 C          66.0293   92.8060   10.1400 C.3     1  UNL1        0.0120
     32 C          67.3696   92.1435   10.0203 C.3     1  UNL1        0.0421
     33 C          68.4459   92.7736    9.1868 C.2     1  UNL1        0.0503
     34 O          69.0844   91.9965    8.0740 O.co2   1  UNL1       -0.5492
     35 O          68.8837   94.1809    9.4662 O.co2   1  UNL1       -0.5492
@<TRIPOS>UNITY_ATOM_ATTR
34 1
charge -1
@<TRIPOS>BOND
     1     5     6    1
     2     6     7   ar
     3     7    17    1
     4    17    18    1
     5    18    19    1
     6    19    20    1
     7    20    21    1
     8     7     8   ar
     9     8     9   ar
    10     9    10   ar
    11    10    11   ar
    12    11    12   ar
    13    12    13    1
    14    12    14   ar
    15    14    15   ar
    16    15    16   ar
    17    16     1    1
    18     1     2    2
    19     1     3   am
    20     3    22    1
    21    23    22    1
    22    23    31    1
    23    31    32    1
    24    32    33    1
    25    33    34   ar
    26    33    35   ar
    27    23    24    1
    28    24    25   ar
    29    25    26   ar
    30    26    27   ar
    31    27    28   ar
    32    28    29   ar
    33    29    30    1
    34    16     6   ar
    35    29    24   ar
    36    21    17    1
    37    15     9   ar
    38     3     4    1
@<TRIPOS>MOLECULE
*****
 35 38 0 0 0
SMALL
GASTEIGER

@<TRIPOS>ATOM
      1 C          62.3613   89.9521   11.6980 C.2     1  UNL1        0.2457
      2 O          61.0883   90.5220   11.1461 O.2     1  UNL1       -0.2702
      3 N          62.5411   88.4655   11.7866 N.am    1  UNL1       -0.3005
      4 H          63.3767   88.0915   12.1488 H       1  UNL1        0.1497
      5 C          63.7558   91.7375    9.7313 C.3     1  UNL1        0.0341
      6 C          64.1518   91.7614   11.1779 C.ar    1  UNL1        0.0141
      7 C          65.2450   92.6781   11.6411 C.ar    1  UNL1        0.1277
      8 N          65.6411   92.7020   13.0877 N.ar    1  UNL1       -0.2310
      9 C          64.9438   91.8093   14.0711 C.ar    1  UNL1        0.0828
     10 C          65.3398   91.8333   15.5176 C.ar    1  UNL1        0.0197
     11 C          64.6426   90.9406   16.5009 C.ar    1  UNL1        0.0082
     12 C          63.5494   90.0239   16.0377 C.ar    1  UNL1        0.0347
     13 BR         62.8521   89.1312   17.0211 Br      1  UNL1       -0.0490
     14 C          63.1533   90.0000   14.5911 C.ar    1  UNL1        0.0083
     15 C          63.8506   90.8927   13.6078 C.ar    1  UNL1        0.0223
     16 C          63.4546   90.8688   12.1612 C.ar    1  UNL1        0.0535
     17 N          65.9423   93.5708   10.6577 N.pl3   1  UNL1       -0.2935
     18 C          67.1057   93.1890    9.7913 C.3     1  UNL1        0.0922
     19 C          67.4810   94.3842    8.9662 C.3     1  UNL1        0.0232
     20 C          66.5495   95.5046    9.3228 C.3     1  UNL1        0.0232
     21 C          65.5985   95.0018   10.3682 C.3     1  UNL1        0.0922
     22 C          61.4479   87.5489   11.3234 C.3     1  UNL1        0.0940
     23 C          61.7266   86.5248   10.2634 C.3     1  UNL1        0.0431
     24 C          62.5002   85.2854   10.6031 C.ar    1  UNL1       -0.0103
     25 C          62.5204   84.7770   12.0142 C.ar    1  UNL1       -0.0034
     26 C          63.2940   83.5375   12.3538 C.ar    1  UNL1       -0.0003
     27 C          64.0473   82.8064   11.2824 C.ar    1  UNL1        0.0008
     28 C          64.0271   83.3148    9.8713 C.ar    1  UNL1        0.0111
     29 C          63.2536   84.5542    9.5317 C.ar    1  UNL1        0.0537
     30 CL         63.2334   85.0626    8.1206 Cl      1  UNL1       -0.0826
     31 C          61.2318   86.7401    8.8639 C.3     1  UNL1        0.0120
     32 C          60.5176   88.0102    8.5080 C.3     1  UNL1        0.0421
     33 C          59.2731   87.9618    7.6720 C.2     1  UNL1        0.0503
     34 O          58.9800   89.0649    6.6987 O.co2   1  UNL1       -0.5492
     35 O          58.3215   86.8103    7.8094 O.co2   1  UNL1       -0.5492
@<TRIPOS>UNITY_ATOM_ATTR
34 1
charge -1
@<TRIPOS>BOND
     1     5     6    1
     2     6     7   ar
     3     7    17    1
     4    17    18    1
     5    18    19    1
     6    19    20    1
     7    20    21    1
     8     7     8   ar
     9     8     9   ar
    10     9    10   ar
    11    10    11   ar
    12    11    12   ar
    13    12    13    1
    14    12    14   ar
    15    14    15   ar
    16    15    16   ar
    17    16     1    1
    18     1     2    2
    19     1     3   am
    20     3    22    1
    21    23    22    1
    22    23    31    1
    23    31    32    1
    24    32    33    1
    25    33    34   ar
    26    33    35   ar
    27    23    24    1
    28    24    25   ar
    29    25    26   ar
    30    26    27   ar
    31    27    28   ar
    32    28    29   ar
    33    29    30    1
    34    16     6   ar
    35    29    24   ar
    36    21    17    1
    37    15     9   ar
    38     3     4    1
@<TRIPOS>MOLECULE
*****
 35 38 0 0 0
SMALL
GASTEIGER

@<TRIPOS>ATOM
      1 C          63.4050   90.1372   12.6128 C.2     1  UNL1        0.2457
      2 O          63.0245   90.5108   14.0148 O.2     1  UNL1       -0.2702
      3 N          64.3705   90.9906   11.8450 N.am    1  UNL1       -0.3005
      4 H          64.6202   90.7454   10.9248 H       1  UNL1        0.1497
      5 C          61.5898   90.3964   10.2383 C.3     1  UNL1        0.0341
      6 C          61.9123   89.0398   10.7914 C.ar    1  UNL1        0.0141
      7 C          61.3273   87.8129   10.1571 C.ar    1  UNL1        0.1277
      8 N          61.6497   86.4563   10.7100 N.ar    1  UNL1       -0.2310
      9 C          62.5573   86.3267   11.8973 C.ar    1  UNL1        0.0828
     10 C          62.8798   84.9702   12.4503 C.ar    1  UNL1        0.0197
     11 C          63.7873   84.8406   13.6375 C.ar    1  UNL1        0.0082
     12 C          64.3724   86.0675   14.2718 C.ar    1  UNL1        0.0347
     13 BR         65.2800   85.9379   15.4590 Br      1  UNL1       -0.0490
     14 C          64.0499   87.4241   13.7188 C.ar    1  UNL1        0.0083
     15 C          63.1424   87.5537   12.5316 C.ar    1  UNL1        0.0223
     16 C          62.8199   88.9102   11.9786 C.ar    1  UNL1        0.0535
     17 N          60.4197   87.9425    8.9698 N.pl3   1  UNL1       -0.2935
     18 C          59.6716   86.8247    8.3058 C.3     1  UNL1        0.0922
     19 C          58.8904   87.4040    7.1637 C.3     1  UNL1        0.0232
     20 C          59.1558   88.8798    7.1220 C.3     1  UNL1        0.0232
     21 C          60.1009   89.2126    8.2382 C.3     1  UNL1        0.0922
     22 C          64.9556   92.2175   12.4793 C.3     1  UNL1        0.0940
     23 C          66.4227   92.5017   12.3499 C.3     1  UNL1        0.0431
     24 C          66.9924   92.9162   11.0257 C.ar    1  UNL1       -0.0103
     25 C          67.8717   91.9731   10.2592 C.ar    1  UNL1       -0.0034
     26 C          68.4414   92.3877    8.9349 C.ar    1  UNL1       -0.0003
     27 C          68.1318   93.7452    8.3772 C.ar    1  UNL1        0.0008
     28 C          67.2525   94.6883    9.1436 C.ar    1  UNL1        0.0111
     29 C          66.6828   94.2738   10.4678 C.ar    1  UNL1        0.0537
     30 CL         65.8035   95.2169   11.2343 Cl      1  UNL1       -0.0826
     31 C          67.3201   92.3714   13.5448 C.3     1  UNL1        0.0120
     32 C          67.1389   93.2834   14.7218 C.3     1  UNL1        0.0421
     33 C          67.0634   92.7137   16.1074 C.2     1  UNL1        0.0503
     34 O          65.7582   92.7098   16.8465 O.co2   1  UNL1       -0.5492
     35 O          68.2931   92.1478   16.7537 O.co2   1  UNL1       -0.5492
@<TRIPOS>UNITY_ATOM_ATTR
34 1
charge -1
@<TRIPOS>BOND
     1     5     6    1
     2     6     7   ar
     3     7    17    1
     4    17    18    1
     5    18    19    1
     6    19    20    1
     7    20    21    1
     8     7     8   ar
     9     8     9   ar
    10     9    10   ar
    11    10    11   ar
    12    11    12   ar
    13    12    13    1
    14    12    14   ar
    15    14    15   ar
    16    15    16   ar
    17    16     1    1
    18     1     2    2
    19     1     3   am
    20     3    22    1
    21    23    22    1
    22    23    31    1
    23    31    32    1
    24    32    33    1
    25    33    34   ar
    26    33    35   ar
    27    23    24    1
    28    24    25   ar
    29    25    26   ar
    30    26    27   ar
    31    27    28   ar
    32    28    29   ar
    33    29    30    1
    34    16     6   ar
    35    29    24   ar
    36    21    17    1
    37    15     9   ar
    38     3     4    1
@<TRIPOS>MOLECULE
*****
 35 38 0 0 0
SMALL
GASTEIGER

@<TRIPOS>ATOM
      1 C          62.0774   88.6718   11.4344 C.2     1  UNL1        0.2457
      2 O          62.4778   89.4858   10.2398 O.2     1  UNL1       -0.2702
      3 N          60.7270   88.0202   11.4795 N.am    1  UNL1       -0.3005
      4 H          60.4642   87.4860   12.2636 H       1  UNL1        0.1497
      5 C          63.1754   91.0919   12.8265 C.3     1  UNL1        0.0341
      6 C          63.5763   89.7194   13.2799 C.ar    1  UNL1        0.0141
      7 C          64.5262   89.5569   14.4294 C.ar    1  UNL1        0.1277
      8 N          64.9271   88.1845   14.8828 N.ar    1  UNL1       -0.2310
      9 C          64.3781   86.9744   14.1868 C.ar    1  UNL1        0.0828
     10 C          64.7791   85.6020   14.6402 C.ar    1  UNL1        0.0197
     11 C          64.2301   84.3920   13.9442 C.ar    1  UNL1        0.0082
     12 C          63.2802   84.5545   12.7947 C.ar    1  UNL1        0.0347
     13 BR         62.7312   83.3444   12.0987 Br      1  UNL1       -0.0490
     14 C          62.8793   85.9269   12.3413 C.ar    1  UNL1        0.0083
     15 C          63.4282   87.1369   13.0373 C.ar    1  UNL1        0.0223
     16 C          63.0273   88.5094   12.5839 C.ar    1  UNL1        0.0535
     17 N          65.0752   90.7670   15.1254 N.pl3   1  UNL1       -0.2935
     18 C          64.4103   91.5212   16.2386 C.3     1  UNL1        0.0922
     19 C          65.3096   92.6557   16.6317 C.3     1  UNL1        0.0232
     20 C          66.5302   92.6025   15.7613 C.3     1  UNL1        0.0232
     21 C          66.3853   91.4353   14.8305 C.3     1  UNL1        0.0922
     22 C          59.7771   88.1827   10.3301 C.3     1  UNL1        0.0940
     23 C          60.2929   88.1594    8.9218 C.3     1  UNL1        0.0431
     24 C          61.0080   86.9463    8.4050 C.ar    1  UNL1       -0.0103
     25 C          62.4542   86.7293    8.7386 C.ar    1  UNL1       -0.0034
     26 C          63.1692   85.5161    8.2218 C.ar    1  UNL1       -0.0003
     27 C          62.4381   84.5201    7.3713 C.ar    1  UNL1        0.0008
     28 C          60.9918   84.7372    7.0376 C.ar    1  UNL1        0.0111
     29 C          60.2768   85.9503    7.5544 C.ar    1  UNL1        0.0537
     30 CL         58.8306   86.1674    7.2208 Cl      1  UNL1       -0.0826
     31 C          60.0937   89.3492    8.0303 C.3     1  UNL1        0.0120
     32 C          59.3061   89.2120    6.7612 C.3     1  UNL1        0.0421
     33 C          59.2450   90.3529    5.7893 C.2     1  UNL1        0.0503
     34 O          60.5052   90.8747    5.1652 O.co2   1  UNL1       -0.5492
     35 O          57.9237   90.9720    5.4415 O.co2   1  UNL1       -0.5492
@<TRIPOS>UNITY_ATOM_ATTR
34 1
charge -1
@<TRIPOS>BOND
     1     5     6    1
     2     6     7   ar
     3     7    17    1
     4    17    18    1
     5    18    19    1
     6    19    20    1
     7    20    21    1
     8     7     8   ar
     9     8     9   ar
    10     9    10   ar
    11    10    11   ar
    12    11    12   ar
    13    12    13    1
    14    12    14   ar
    15    14    15   ar
    16    15    16   ar
    17    16     1    1
    18     1     2    2
    19     1     3   am
    20     3    22    1
    21    23    22    1
    22    23    31    1
    23    31    32    1
    24    32    33    1
    25    33    34   ar
    26    33    35   ar
    27    23    24    1
    28    24    25   ar
    29    25    26   ar
    30    26    27   ar
    31    27    28   ar
    32    28    29   ar
    33    29    30    1
    34    16     6   ar
    35    29    24   ar
    36    21    17    1
    37    15     9   ar
    38     3     4    1
@<TRIPOS>MOLECULE
*****
 35 38 0 0 0
SMALL
GASTEIGER

@<TRIPOS>ATOM
      1 C          62.5150   89.5877   11.4108 C.2     1  UNL1        0.2457
      2 O          61.9240   90.6935   10.5876 O.2     1  UNL1       -0.2702
      3 N          63.4310   89.9108   12.5540 N.am    1  UNL1       -0.3005
      4 H          63.8189   89.1850   13.0943 H       1  UNL1        0.1497
      5 C          63.6160   87.3807   13.1188 C.3     1  UNL1        0.0341
      6 C          62.7406   87.0551   11.9450 C.ar    1  UNL1        0.0141
      7 C          62.4157   85.6261   11.6252 C.ar    1  UNL1        0.1277
      8 N          61.5404   85.3005   10.4514 N.ar    1  UNL1       -0.2310
      9 C          60.9899   86.4040    9.5974 C.ar    1  UNL1        0.0828
     10 C          60.1145   86.0784    8.4237 C.ar    1  UNL1        0.0197
     11 C          59.5641   87.1819    7.5697 C.ar    1  UNL1        0.0082
     12 C          59.8890   88.6110    7.8895 C.ar    1  UNL1        0.0347
     13 BR         59.3385   89.7145    7.0355 Br      1  UNL1       -0.0490
     14 C          60.7643   88.9365    9.0633 C.ar    1  UNL1        0.0083
     15 C          61.3148   87.8331    9.9172 C.ar    1  UNL1        0.0223
     16 C          62.1902   88.1586   11.0910 C.ar    1  UNL1        0.0535
     17 N          62.9662   84.5226   12.4792 N.pl3   1  UNL1       -0.2935
     18 C          62.5189   84.1762   13.8685 C.3     1  UNL1        0.0922
     19 C          63.3369   83.0113   14.3418 C.3     1  UNL1        0.0232
     20 C          64.2897   82.6378   13.2451 C.3     1  UNL1        0.0232
     21 C          64.0606   83.5718   12.0940 C.3     1  UNL1        0.0922
     22 C          63.7559   91.3399   12.8738 C.3     1  UNL1        0.0940
     23 C          65.1443   91.8616   12.6500 C.3     1  UNL1        0.0431
     24 C          66.0576   92.0881   13.8181 C.ar    1  UNL1       -0.0103
     25 C          67.5027   92.4176   13.5874 C.ar    1  UNL1       -0.0034
     26 C          68.4160   92.6441   14.7556 C.ar    1  UNL1       -0.0003
     27 C          67.8842   92.5412   16.1544 C.ar    1  UNL1        0.0008
     28 C          66.4392   92.2118   16.3851 C.ar    1  UNL1        0.0111
     29 C          65.5258   91.9852   15.2170 C.ar    1  UNL1        0.0537
     30 CL         64.0808   91.6558   15.4477 Cl      1  UNL1       -0.0826
     31 C          65.6194   92.1567   11.2582 C.3     1  UNL1        0.0120
     32 C          65.3672   93.5042   10.6495 C.3     1  UNL1        0.0421
     33 C          66.3830   94.5974   10.8006 C.2     1  UNL1        0.0503
     34 O          66.1132   95.7498   11.7221 O.co2   1  UNL1       -0.5492
     35 O          67.6688   94.5382   10.0302 O.co2   1  UNL1       -0.5492
@<TRIPOS>UNITY_ATOM_ATTR
34 1
charge -1
@<TRIPOS>BOND
     1     5     6    1
     2     6     7   ar
     3     7    17    1
     4    17    18    1
     5    18    19    1
     6    19    20    1
     7    20    21    1
     8     7     8   ar
     9     8     9   ar
    10     9    10   ar
    11    10    11   ar
    12    11    12   ar
    13    12    13    1
    14    12    14   ar
    15    14    15   ar
    16    15    16   ar
    17    16     1    1
    18     1     2    2
    19     1     3   am
    20     3    22    1
    21    23    22    1
    22    23    31    1
    23    31    32    1
    24    32    33    1
    25    33    34   ar
    26    33    35   ar
    27    23    24    1
    28    24    25   ar
    29    25    26   ar
    30    26    27   ar
    31    27    28   ar
    32    28    29   ar
    33    29    30    1
    34    16     6   ar
    35    29    24   ar
    36    21    17    1
    37    15     9   ar
    38     3     4    1
@<TRIPOS>MOLECULE
*****
 35 38 0 0 0
SMALL
GASTEIGER

@<TRIPOS>ATOM
      1 C          63.6936   88.2425   14.3512 C.2     1  UNL1        0.2457
      2 O          62.8888   88.3363   15.6135 O.2     1  UNL1       -0.2702
      3 N          64.0255   86.8994   13.7715 N.am    1  UNL1       -0.3005
      4 H          64.5538   86.8378   12.9430 H       1  UNL1        0.1497
      5 C          65.8868   89.8825   15.5761 C.3     1  UNL1        0.0341
      6 C          65.2631   90.3117   14.2811 C.ar    1  UNL1        0.0141
      7 C          65.7361   91.5608   13.5985 C.ar    1  UNL1        0.1277
      8 N          65.1125   91.9900   12.3036 N.ar    1  UNL1       -0.2310
      9 C          64.0159   91.1699   11.6911 C.ar    1  UNL1        0.0828
     10 C          63.3924   91.5990   10.3962 C.ar    1  UNL1        0.0197
     11 C          62.2958   90.7790    9.7837 C.ar    1  UNL1        0.0082
     12 C          61.8228   89.5298   10.4663 C.ar    1  UNL1        0.0347
     13 BR         60.7262   88.7098    9.8538 Br      1  UNL1       -0.0490
     14 C          62.4464   89.1007   11.7613 C.ar    1  UNL1        0.0083
     15 C          63.5429   89.9207   12.3737 C.ar    1  UNL1        0.0223
     16 C          64.1666   89.4916   13.6687 C.ar    1  UNL1        0.0535
     17 N          66.8327   92.3809   14.2110 N.pl3   1  UNL1       -0.2935
     18 C          66.6716   93.7224   14.8624 C.3     1  UNL1        0.0922
     19 C          68.0222   94.1741   15.3336 C.3     1  UNL1        0.0232
     20 C          69.0180   93.1116   14.9734 C.3     1  UNL1        0.0232
     21 C          68.2828   92.0033   14.2796 C.3     1  UNL1        0.0922
     22 C          63.5526   85.6502   14.4540 C.3     1  UNL1        0.0940
     23 C          62.8047   84.6080   13.6766 C.3     1  UNL1        0.0431
     24 C          62.9664   84.5232   12.1878 C.ar    1  UNL1       -0.0103
     25 C          62.1674   85.4248   11.2940 C.ar    1  UNL1       -0.0034
     26 C          62.3292   85.3399    9.8051 C.ar    1  UNL1       -0.0003
     27 C          63.2898   84.3535    9.2101 C.ar    1  UNL1        0.0008
     28 C          64.0887   83.4519   10.1038 C.ar    1  UNL1        0.0111
     29 C          63.9270   83.5367   11.5926 C.ar    1  UNL1        0.0537
     30 CL         64.7260   82.6351   12.4864 Cl      1  UNL1       -0.0826
     31 C          61.8951   83.6506   14.3880 C.3     1  UNL1        0.0120
     32 C          62.3354   82.2373   14.6303 C.3     1  UNL1        0.0421
     33 C          61.6252   81.1037   13.9516 C.2     1  UNL1        0.0503
     34 O          60.2173   80.7612   14.3393 O.co2   1  UNL1       -0.5492
     35 O          62.3230   80.3127   12.8851 O.co2   1  UNL1       -0.5492
@<TRIPOS>UNITY_ATOM_ATTR
34 1
charge -1
@<TRIPOS>BOND
     1     5     6    1
     2     6     7   ar
     3     7    17    1
     4    17    18    1
     5    18    19    1
     6    19    20    1
     7    20    21    1
     8     7     8   ar
     9     8     9   ar
    10     9    10   ar
    11    10    11   ar
    12    11    12   ar
    13    12    13    1
    14    12    14   ar
    15    14    15   ar
    16    15    16   ar
    17    16     1    1
    18     1     2    2
    19     1     3   am
    20     3    22    1
    21    23    22    1
    22    23    31    1
    23    31    32    1
    24    32    33    1
    25    33    34   ar
    26    33    35   ar
    27    23    24    1
    28    24    25   ar
    29    25    26   ar
    30    26    27   ar
    31    27    28   ar
    32    28    29   ar
    33    29    30    1
    34    16     6   ar
    35    29    24   ar
    36    21    17    1
    37    15     9   ar
    38     3     4    1
@<TRIPOS>MOLECULE
*****
 35 38 0 0 0
SMALL
GASTEIGER

@<TRIPOS>ATOM
      1 C          64.1696   86.9629   13.8637 C.2     1  UNL1        0.2457
      2 O          64.9863   86.3823   14.9798 O.2     1  UNL1       -0.2702
      3 N          64.1449   88.4469   13.6459 N.am    1  UNL1       -0.3005
      4 H          63.6089   88.8280   12.9133 H       1  UNL1        0.1497
      5 C          64.0479   84.0187   14.4266 C.3     1  UNL1        0.0341
      6 C          63.3167   84.5877   13.2469 C.ar    1  UNL1        0.0141
      7 C          62.5246   83.6845   12.3486 C.ar    1  UNL1        0.1277
      8 N          61.7934   84.2534   11.1689 N.ar    1  UNL1       -0.2310
      9 C          61.8543   85.7255   10.8875 C.ar    1  UNL1        0.0828
     10 C          61.1231   86.2944    9.7078 C.ar    1  UNL1        0.0197
     11 C          61.1840   87.7665    9.4264 C.ar    1  UNL1        0.0082
     12 C          61.9760   88.6697   10.3247 C.ar    1  UNL1        0.0347
     13 BR         62.0369   90.1419   10.0432 Br      1  UNL1       -0.0490
     14 C          62.7072   88.1008   11.5043 C.ar    1  UNL1        0.0083
     15 C          62.6464   86.6287   11.7857 C.ar    1  UNL1        0.0223
     16 C          63.3776   86.0598   12.9655 C.ar    1  UNL1        0.0535
     17 N          62.4638   82.2123   12.6300 N.pl3   1  UNL1       -0.2935
     18 C          61.7935   81.5667   13.8064 C.3     1  UNL1        0.0922
     19 C          61.9780   80.0827   13.6880 C.3     1  UNL1        0.0232
     20 C          62.7623   79.8114   12.4384 C.3     1  UNL1        0.0232
     21 C          63.0625   81.1276   11.7846 C.3     1  UNL1        0.0922
     22 C          64.9370   89.3501   14.5441 C.3     1  UNL1        0.0940
     23 C          64.6175   90.8143   14.6061 C.3     1  UNL1        0.0431
     24 C          65.0665   91.7272   13.5038 C.ar    1  UNL1       -0.0103
     25 C          64.5125   91.5609   12.1198 C.ar    1  UNL1       -0.0034
     26 C          64.9616   92.4739   11.0176 C.ar    1  UNL1       -0.0003
     27 C          65.9646   93.5530   11.2993 C.ar    1  UNL1        0.0008
     28 C          66.5186   93.7192   12.6833 C.ar    1  UNL1        0.0111
     29 C          66.0696   92.8063   13.7855 C.ar    1  UNL1        0.0537
     30 CL         66.6236   92.9725   15.1695 Cl      1  UNL1       -0.0826
     31 C          63.8489   91.3656   15.7702 C.3     1  UNL1        0.0120
     32 C          63.5348   90.4876   16.9451 C.3     1  UNL1        0.0421
     33 C          62.7050   89.2522   16.7576 C.2     1  UNL1        0.0503
     34 O          63.1477   87.9525   17.3613 O.co2   1  UNL1       -0.5492
     35 O          61.4322   89.3167   15.9662 O.co2   1  UNL1       -0.5492
@<TRIPOS>UNITY_ATOM_ATTR
34 1
charge -1
@<TRIPOS>BOND
     1     5     6    1
     2     6     7   ar
     3     7    17    1
     4    17    18    1
     5    18    19    1
     6    19    20    1
     7    20    21    1
     8     7     8   ar
     9     8     9   ar
    10     9    10   ar
    11    10    11   ar
    12    11    12   ar
    13    12    13    1
    14    12    14   ar
    15    14    15   ar
    16    15    16   ar
    17    16     1    1
    18     1     2    2
    19     1     3   am
    20     3    22    1
    21    23    22    1
    22    23    31    1
    23    31    32    1
    24    32    33    1
    25    33    34   ar
    26    33    35   ar
    27    23    24    1
    28    24    25   ar
    29    25    26   ar
    30    26    27   ar
    31    27    28   ar
    32    28    29   ar
    33    29    30    1
    34    16     6   ar
    35    29    24   ar
    36    21    17    1
    37    15     9   ar
    38     3     4    1
@<TRIPOS>MOLECULE
*****
 35 38 0 0 0
SMALL
GASTEIGER

@<TRIPOS>ATOM
      1 C          64.0311   88.3171   14.4355 C.2     1  UNL1        0.2457
      2 O          63.6409   88.2323   15.8813 O.2     1  UNL1       -0.2702
      3 N          64.9222   89.4275   13.9630 N.am    1  UNL1       -0.3005
      4 H          65.1783   89.4831   13.0140 H       1  UNL1        0.1497
      5 C          64.2095   85.3987   15.1071 C.3     1  UNL1        0.0341
      6 C          63.6195   85.8324   13.7979 C.ar    1  UNL1        0.0141
      7 C          63.1188   84.8068   12.8245 C.ar    1  UNL1        0.1277
      8 N          62.5289   85.2404   11.5153 N.ar    1  UNL1       -0.2310
      9 C          62.4397   86.6997   11.1795 C.ar    1  UNL1        0.0828
     10 C          61.8498   87.1333    9.8704 C.ar    1  UNL1        0.0197
     11 C          61.7606   88.5925    9.5346 C.ar    1  UNL1        0.0082
     12 C          62.2613   89.6181   10.5080 C.ar    1  UNL1        0.0347
     13 BR         62.1722   91.0773   10.1722 Br      1  UNL1       -0.0490
     14 C          62.8513   89.1844   11.8171 C.ar    1  UNL1        0.0083
     15 C          62.9404   87.7253   12.1529 C.ar    1  UNL1        0.0223
     16 C          63.5304   87.2916   13.4621 C.ar    1  UNL1        0.0535
     17 N          63.2080   83.3476   13.1603 N.pl3   1  UNL1       -0.2935
     18 C          64.3000   82.4106   12.7366 C.3     1  UNL1        0.0922
     19 C          63.9878   81.0530   13.2932 C.3     1  UNL1        0.0232
     20 C          62.7028   81.1511   14.0609 C.3     1  UNL1        0.0232
     21 C          62.2209   82.5692   13.9787 C.3     1  UNL1        0.0922
     22 C          65.4229   90.4530   14.9364 C.3     1  UNL1        0.0940
     23 C          65.8938   91.7888   14.4425 C.3     1  UNL1        0.0431
     24 C          66.1105   92.0121   12.9752 C.ar    1  UNL1       -0.0103
     25 C          64.9584   92.4031   12.0978 C.ar    1  UNL1       -0.0034
     26 C          65.1752   92.6264   10.6304 C.ar    1  UNL1       -0.0003
     27 C          66.5440   92.4586   10.0404 C.ar    1  UNL1        0.0008
     28 C          67.6961   92.0675   10.9178 C.ar    1  UNL1        0.0111
     29 C          67.4794   91.8443   12.3851 C.ar    1  UNL1        0.0537
     30 CL         68.6315   91.4532   13.2625 Cl      1  UNL1       -0.0826
     31 C          66.1479   92.9013   15.4160 C.3     1  UNL1        0.0120
     32 C          67.2784   93.8591   15.1820 C.3     1  UNL1        0.0421
     33 C          68.5308   93.7556   16.0011 C.2     1  UNL1        0.0503
     34 O          69.2489   94.9994   16.4336 O.co2   1  UNL1       -0.5492
     35 O          69.0649   92.4082   16.3876 O.co2   1  UNL1       -0.5492
@<TRIPOS>UNITY_ATOM_ATTR
34 1
charge -1
@<TRIPOS>BOND
     1     5     6    1
     2     6     7   ar
     3     7    17    1
     4    17    18    1
     5    18    19    1
     6    19    20    1
     7    20    21    1
     8     7     8   ar
     9     8     9   ar
    10     9    10   ar
    11    10    11   ar
    12    11    12   ar
    13    12    13    1
    14    12    14   ar
    15    14    15   ar
    16    15    16   ar
    17    16     1    1
    18     1     2    2
    19     1     3   am
    20     3    22    1
    21    23    22    1
    22    23    31    1
    23    31    32    1
    24    32    33    1
    25    33    34   ar
    26    33    35   ar
    27    23    24    1
    28    24    25   ar
    29    25    26   ar
    30    26    27   ar
    31    27    28   ar
    32    28    29   ar
    33    29    30    1
    34    16     6   ar
    35    29    24   ar
    36    21    17    1
    37    15     9   ar
    38     3     4    1
