@<TRIPOS>MOLECULE
*****
 39 43 0 0 0
SMALL
GASTEIGER

@<TRIPOS>ATOM
      1 C          62.8570   84.6284   16.7834 C.3     1  UNL1        0.1332
      2 N          63.6330   85.6031   15.9480 N.ar    1  UNL1       -0.2975
      3 C          64.6516   85.2539   14.9037 C.ar    1  UNL1        0.2017
      4 N          65.1747   86.5331   14.3206 N.ar    1  UNL1       -0.2134
      5 C          64.4796   87.6728   15.0045 C.ar    1  UNL1        0.1030
      6 C          64.5911   89.1597   14.8414 C.ar    1  UNL1        0.0581
      7 C          63.7497   90.0718   15.6841 C.ar    1  UNL1        0.1469
      8 C          62.7969   89.4970   16.6899 C.ar    1  UNL1        0.0391
      9 C          62.6854   88.0101   16.8531 C.ar    1  UNL1        0.0219
     10 C          63.5267   87.0980   16.0104 C.ar    1  UNL1        0.0801
     11 N          65.0729   83.8688   14.5113 N.pl3   1  UNL1       -0.2839
     12 H          65.9020   83.4842   14.8774 H       1  UNL1        0.1550
     13 C          64.2312   83.0696   13.5613 C.ar    1  UNL1        0.0504
     14 C          64.4061   83.2375   12.0809 C.ar    1  UNL1        0.0147
     15 C          63.5643   82.4383   11.1309 C.ar    1  UNL1        0.0012
     16 C          62.5476   81.4712   11.6610 C.ar    1  UNL1        0.0039
     17 C          62.3727   81.3033   13.1413 C.ar    1  UNL1        0.0726
     18 C          63.2145   82.1025   14.0914 C.ar    1  UNL1        0.0185
     19 C          61.3560   80.3362   13.6714 C.3     1  UNL1        0.4186
     20 F          60.3393   79.3691   14.2016 F       1  UNL1       -0.1659
     21 F          62.0857   79.2057   13.0086 F       1  UNL1       -0.1659
     22 F          60.6262   81.4668   14.3343 F       1  UNL1       -0.1659
     23 O          63.8612   91.5588   15.5209 O.3     1  UNL1       -0.4533
     24 C          65.1724   92.1742   15.1310 C.ar    1  UNL1        0.1485
     25 C          66.1910   92.4988   16.1833 C.ar    1  UNL1        0.0582
     26 C          67.5021   93.1143   15.7933 C.ar    1  UNL1        0.1021
     27 N          67.7947   93.4052   14.3511 N.ar    1  UNL1       -0.2406
     28 C          66.7761   93.0806   13.2989 C.ar    1  UNL1        0.1181
     29 C          65.4650   92.4651   13.6889 C.ar    1  UNL1        0.0597
     30 C          67.0687   93.3715   11.8567 C.ar    1  UNL1        0.1585
     31 N          67.5970   92.3935   10.8496 N.ar    1  UNL1       -0.2240
     32 C          67.7391   93.1090    9.5390 C.ar    1  UNL1        0.1214
     33 C          67.2986   94.5293    9.7360 C.ar    1  UNL1        0.1493
     34 N          66.8842   94.6915   11.1686 N.ar    1  UNL1       -0.3329
     35 H          66.5499   95.5190   11.5842 H       1  UNL1        0.1674
     36 C          67.2763   95.5994    8.6852 C.3     1  UNL1        0.4344
     37 F          67.2540   96.6695    7.6343 F       1  UNL1       -0.1644
     38 F          67.5665   94.5714    7.6322 F       1  UNL1       -0.1644
     39 F          66.9862   96.6275    9.7382 F       1  UNL1       -0.1644
@<TRIPOS>BOND
     1     1     2    1
     2     2     3   ar
     3     3    11    1
     4    11    13    1
     5    13    14   ar
     6    14    15   ar
     7    15    16   ar
     8    16    17   ar
     9    17    19    1
    10    19    20    1
    11    19    21    1
    12    19    22    1
    13    17    18   ar
    14     3     4   ar
    15     4     5   ar
    16     5     6   ar
    17     6     7   ar
    18     7    23    1
    19    23    24    1
    20    24    25   ar
    21    25    26   ar
    22    26    27   ar
    23    27    28   ar
    24    28    30    1
    25    30    31   ar
    26    31    32   ar
    27    32    33   ar
    28    33    36    1
    29    36    37    1
    30    36    38    1
    31    36    39    1
    32    33    34   ar
    33    28    29   ar
    34     7     8   ar
    35     8     9   ar
    36     9    10   ar
    37    10     2   ar
    38    18    13   ar
    39    10     5   ar
    40    29    24   ar
    41    34    30   ar
    42    11    12    1
    43    34    35    1
@<TRIPOS>MOLECULE
*****
 39 43 0 0 0
SMALL
GASTEIGER

@<TRIPOS>ATOM
      1 C          60.9191   86.5118    7.9643 C.3     1  UNL1        0.1332
      2 N          60.7293   87.8531    8.6085 N.ar    1  UNL1       -0.2975
      3 C          59.8474   88.9566    8.1041 C.ar    1  UNL1        0.2017
      4 N          59.9612   90.1118    9.0542 N.ar    1  UNL1       -0.2134
      5 C          60.9135   89.7222   10.1457 C.ar    1  UNL1        0.1030
      6 C          61.4097   90.4583   11.3548 C.ar    1  UNL1        0.0581
      7 C          62.3806   89.7983   12.2884 C.ar    1  UNL1        0.1469
      8 C          62.8553   88.4024   12.0130 C.ar    1  UNL1        0.0391
      9 C          62.3592   87.6663   10.8039 C.ar    1  UNL1        0.0219
     10 C          61.3883   88.3262    9.8702 C.ar    1  UNL1        0.0801
     11 N          59.0003   88.9126    6.8670 N.pl3   1  UNL1       -0.2839
     12 H          58.4404   88.1244    6.6815 H       1  UNL1        0.1550
     13 C          59.0064   90.0696    5.9124 C.ar    1  UNL1        0.0504
     14 C          57.7383   90.8227    5.6386 C.ar    1  UNL1        0.0147
     15 C          57.7443   91.9797    4.6840 C.ar    1  UNL1        0.0012
     16 C          59.0184   92.3837    4.0032 C.ar    1  UNL1        0.0039
     17 C          60.2864   91.6307    4.2770 C.ar    1  UNL1        0.0726
     18 C          60.2804   90.4736    5.2316 C.ar    1  UNL1        0.0185
     19 C          61.5605   92.0347    3.5962 C.3     1  UNL1        0.4186
     20 F          62.8346   92.4388    2.9153 F       1  UNL1       -0.1659
     21 F          62.2704   90.8807    4.2398 F       1  UNL1       -0.1659
     22 F          60.8506   93.1888    2.9525 F       1  UNL1       -0.1659
     23 O          62.8768   90.5344   13.4976 O.3     1  UNL1       -0.4533
     24 C          64.2917   91.0304   13.5455 C.ar    1  UNL1        0.1485
     25 C          65.1044   90.8596   14.7946 C.ar    1  UNL1        0.0582
     26 C          66.5193   91.3556   14.8425 C.ar    1  UNL1        0.1021
     27 N          67.1213   92.0224   13.6412 N.ar    1  UNL1       -0.2406
     28 C          66.3085   92.1931   12.3921 C.ar    1  UNL1        0.1181
     29 C          64.8937   91.6971   12.3443 C.ar    1  UNL1        0.0597
     30 C          66.9105   92.8598   11.1908 C.ar    1  UNL1        0.1585
     31 N          68.0567   92.3391   10.3752 N.ar    1  UNL1       -0.2240
     32 C          68.3266   93.3218    9.2745 C.ar    1  UNL1        0.1214
     33 C          67.3472   94.4500    9.4099 C.ar    1  UNL1        0.1493
     34 N          66.4720   94.1644   10.5943 N.ar    1  UNL1       -0.3329
     35 H          65.7386   94.7333   10.9225 H       1  UNL1        0.1674
     36 C          67.2586   95.6525    8.5176 C.3     1  UNL1        0.4344
     37 F          67.1700   96.8549    7.6254 F       1  UNL1       -0.1644
     38 F          67.1530   94.7558    7.3198 F       1  UNL1       -0.1644
     39 F          67.3642   96.5491    9.7155 F       1  UNL1       -0.1644
@<TRIPOS>BOND
     1     1     2    1
     2     2     3   ar
     3     3    11    1
     4    11    13    1
     5    13    14   ar
     6    14    15   ar
     7    15    16   ar
     8    16    17   ar
     9    17    19    1
    10    19    20    1
    11    19    21    1
    12    19    22    1
    13    17    18   ar
    14     3     4   ar
    15     4     5   ar
    16     5     6   ar
    17     6     7   ar
    18     7    23    1
    19    23    24    1
    20    24    25   ar
    21    25    26   ar
    22    26    27   ar
    23    27    28   ar
    24    28    30    1
    25    30    31   ar
    26    31    32   ar
    27    32    33   ar
    28    33    36    1
    29    36    37    1
    30    36    38    1
    31    36    39    1
    32    33    34   ar
    33    28    29   ar
    34     7     8   ar
    35     8     9   ar
    36     9    10   ar
    37    10     2   ar
    38    18    13   ar
    39    10     5   ar
    40    29    24   ar
    41    34    30   ar
    42    11    12    1
    43    34    35    1
@<TRIPOS>MOLECULE
*****
 39 43 0 0 0
SMALL
GASTEIGER

@<TRIPOS>ATOM
      1 C          62.5897   85.5849   17.9738 C.3     1  UNL1        0.1332
      2 N          63.2736   86.0399   16.7187 N.ar    1  UNL1       -0.2975
      3 C          63.8703   85.1512   15.6679 C.ar    1  UNL1        0.2017
      4 N          64.4463   86.0256   14.5939 N.ar    1  UNL1       -0.2134
      5 C          64.2056   87.4547   14.9808 C.ar    1  UNL1        0.1030
      6 C          64.5527   88.7491   14.3070 C.ar    1  UNL1        0.0581
      7 C          64.1750   90.0523   14.9464 C.ar    1  UNL1        0.1469
      8 C          63.4502   90.0611   16.2597 C.ar    1  UNL1        0.0391
      9 C          63.1031   88.7668   16.9335 C.ar    1  UNL1        0.0219
     10 C          63.4808   87.4635   16.2940 C.ar    1  UNL1        0.0801
     11 N          63.8880   83.6514   15.6878 N.pl3   1  UNL1       -0.2839
     12 H          64.1379   83.1729   16.5111 H       1  UNL1        0.1550
     13 C          63.5248   82.8807   14.4533 C.ar    1  UNL1        0.0504
     14 C          62.9068   81.5192   14.5738 C.ar    1  UNL1        0.0147
     15 C          62.5437   80.7485   13.3393 C.ar    1  UNL1        0.0012
     16 C          62.7984   81.3392   11.9842 C.ar    1  UNL1        0.0039
     17 C          63.4164   82.7006   11.8637 C.ar    1  UNL1        0.0726
     18 C          63.7796   83.4714   13.0982 C.ar    1  UNL1        0.0185
     19 C          63.6712   83.2913   10.5087 C.3     1  UNL1        0.4186
     20 F          63.9259   83.8820    9.1536 F       1  UNL1       -0.1659
     21 F          64.3206   82.0114   10.0728 F       1  UNL1       -0.1659
     22 F          63.0217   84.5712   10.9445 F       1  UNL1       -0.1659
     23 O          64.5221   91.3468   14.2726 O.3     1  UNL1       -0.4533
     24 C          64.2398   91.5307   12.8110 C.ar    1  UNL1        0.1485
     25 C          65.0047   92.5519   12.0221 C.ar    1  UNL1        0.0582
     26 C          64.7224   92.7358   10.5604 C.ar    1  UNL1        0.1021
     27 N          63.6752   91.8986    9.8876 N.ar    1  UNL1       -0.2406
     28 C          62.9104   90.8775   10.6765 C.ar    1  UNL1        0.1181
     29 C          63.1927   90.6936   12.1382 C.ar    1  UNL1        0.0597
     30 C          61.8632   90.0403   10.0037 C.ar    1  UNL1        0.1585
     31 N          60.4673   90.4755    9.6690 N.ar    1  UNL1       -0.2240
     32 C          59.7695   89.3251    9.0060 C.ar    1  UNL1        0.1214
     33 C          60.7342   88.1788    8.9309 C.ar    1  UNL1        0.1493
     34 N          62.0282   88.6209    9.5476 N.ar    1  UNL1       -0.3329
     35 H          62.8428   88.0752    9.6372 H       1  UNL1        0.1674
     36 C          60.4540   86.8278    8.3425 C.3     1  UNL1        0.4344
     37 F          60.1739   85.4768    7.7541 F       1  UNL1       -0.1644
     38 F          59.0502   87.2546    8.0311 F       1  UNL1       -0.1644
     39 F          61.8579   86.4011    8.6540 F       1  UNL1       -0.1644
@<TRIPOS>BOND
     1     1     2    1
     2     2     3   ar
     3     3    11    1
     4    11    13    1
     5    13    14   ar
     6    14    15   ar
     7    15    16   ar
     8    16    17   ar
     9    17    19    1
    10    19    20    1
    11    19    21    1
    12    19    22    1
    13    17    18   ar
    14     3     4   ar
    15     4     5   ar
    16     5     6   ar
    17     6     7   ar
    18     7    23    1
    19    23    24    1
    20    24    25   ar
    21    25    26   ar
    22    26    27   ar
    23    27    28   ar
    24    28    30    1
    25    30    31   ar
    26    31    32   ar
    27    32    33   ar
    28    33    36    1
    29    36    37    1
    30    36    38    1
    31    36    39    1
    32    33    34   ar
    33    28    29   ar
    34     7     8   ar
    35     8     9   ar
    36     9    10   ar
    37    10     2   ar
    38    18    13   ar
    39    10     5   ar
    40    29    24   ar
    41    34    30   ar
    42    11    12    1
    43    34    35    1
@<TRIPOS>MOLECULE
*****
 39 43 0 0 0
SMALL
GASTEIGER

@<TRIPOS>ATOM
      1 C          62.6175   85.9599   18.1339 C.3     1  UNL1        0.1332
      2 N          63.3130   86.3648   16.8680 N.ar    1  UNL1       -0.2975
      3 C          63.9353   85.4358   15.8681 C.ar    1  UNL1        0.2017
      4 N          64.5151   86.2666   14.7620 N.ar    1  UNL1       -0.2134
      5 C          64.2511   87.7090   15.0782 C.ar    1  UNL1        0.1030
      6 C          64.5912   88.9749   14.3491 C.ar    1  UNL1        0.0581
      7 C          64.1884   90.3015   14.9216 C.ar    1  UNL1        0.1469
      8 C          63.4454   90.3621   16.2232 C.ar    1  UNL1        0.0391
      9 C          63.1053   89.0962   16.9524 C.ar    1  UNL1        0.0219
     10 C          63.5081   87.7696   16.3798 C.ar    1  UNL1        0.0801
     11 N          63.9715   83.9390   15.9586 N.pl3   1  UNL1       -0.2839
     12 H          64.2431   83.5030   16.7984 H       1  UNL1        0.1550
     13 C          63.5939   83.1065   14.7694 C.ar    1  UNL1        0.0504
     14 C          64.3079   83.2961   13.4638 C.ar    1  UNL1        0.0147
     15 C          63.9303   82.4636   12.2746 C.ar    1  UNL1        0.0012
     16 C          62.8388   81.4413   12.3909 C.ar    1  UNL1        0.0039
     17 C          62.1248   81.2517   13.6963 C.ar    1  UNL1        0.0726
     18 C          62.5024   82.0842   14.8856 C.ar    1  UNL1        0.0185
     19 C          61.0332   80.2294   13.8125 C.3     1  UNL1        0.4186
     20 F          59.9417   79.2072   13.9288 F       1  UNL1       -0.1659
     21 F          60.0847   81.2950   14.2759 F       1  UNL1       -0.1659
     22 F          61.9818   79.1638   13.3491 F       1  UNL1       -0.1659
     23 O          64.5285   91.5675   14.1925 O.3     1  UNL1       -0.4533
     24 C          64.2506   91.6845   12.7231 C.ar    1  UNL1        0.1485
     25 C          65.0308   92.6556   11.8872 C.ar    1  UNL1        0.0582
     26 C          64.7529   92.7726   10.4179 C.ar    1  UNL1        0.1021
     27 N          63.6949   91.9185    9.7843 N.ar    1  UNL1       -0.2406
     28 C          62.9148   90.9475   10.6201 C.ar    1  UNL1        0.1181
     29 C          63.1927   90.8305   12.0895 C.ar    1  UNL1        0.0597
     30 C          61.8568   90.0935    9.9866 C.ar    1  UNL1        0.1585
     31 N          60.4440   90.5077    9.7000 N.ar    1  UNL1       -0.2240
     32 C          59.7399   89.3455    9.0647 C.ar    1  UNL1        0.1214
     33 C          60.7178   88.2129    8.9586 C.ar    1  UNL1        0.1493
     34 N          62.0261   88.6752    9.5284 N.ar    1  UNL1       -0.3329
     35 H          62.8511   88.1415    9.5907 H       1  UNL1        0.1674
     36 C          60.4366   86.8563    8.3837 C.3     1  UNL1        0.4344
     37 F          60.1555   85.4997    7.8089 F       1  UNL1       -0.1644
     38 F          61.8768   86.4797    8.5680 F       1  UNL1       -0.1644
     39 F          58.9964   87.2329    8.1994 F       1  UNL1       -0.1644
@<TRIPOS>BOND
     1     1     2    1
     2     2     3   ar
     3     3    11    1
     4    11    13    1
     5    13    14   ar
     6    14    15   ar
     7    15    16   ar
     8    16    17   ar
     9    17    19    1
    10    19    20    1
    11    19    21    1
    12    19    22    1
    13    17    18   ar
    14     3     4   ar
    15     4     5   ar
    16     5     6   ar
    17     6     7   ar
    18     7    23    1
    19    23    24    1
    20    24    25   ar
    21    25    26   ar
    22    26    27   ar
    23    27    28   ar
    24    28    30    1
    25    30    31   ar
    26    31    32   ar
    27    32    33   ar
    28    33    36    1
    29    36    37    1
    30    36    38    1
    31    36    39    1
    32    33    34   ar
    33    28    29   ar
    34     7     8   ar
    35     8     9   ar
    36     9    10   ar
    37    10     2   ar
    38    18    13   ar
    39    10     5   ar
    40    29    24   ar
    41    34    30   ar
    42    11    12    1
    43    34    35    1
@<TRIPOS>MOLECULE
*****
 39 43 0 0 0
SMALL
GASTEIGER

@<TRIPOS>ATOM
      1 C          59.1837   86.3524    7.0675 C.3     1  UNL1        0.1332
      2 N          59.7720   87.5016    7.8313 N.ar    1  UNL1       -0.2975
      3 C          59.5579   88.9570    7.5380 C.ar    1  UNL1        0.2017
      4 N          60.3313   89.7519    8.5479 N.ar    1  UNL1       -0.2134
      5 C          61.0234   88.7879    9.4653 C.ar    1  UNL1        0.1030
      6 C          61.9237   88.9968   10.6467 C.ar    1  UNL1        0.0581
      7 C          62.4783   87.8149   11.3852 C.ar    1  UNL1        0.1469
      8 C          62.1326   86.4241   10.9423 C.ar    1  UNL1        0.0391
      9 C          61.2324   86.2152    9.7609 C.ar    1  UNL1        0.0219
     10 C          60.6777   87.3971    9.0224 C.ar    1  UNL1        0.0801
     11 N          58.7179   89.5187    6.4295 N.pl3   1  UNL1       -0.2839
     12 H          57.7874   89.2178    6.3160 H       1  UNL1        0.1550
     13 C          59.2955   90.5389    5.4939 C.ar    1  UNL1        0.0504
     14 C          58.4830   91.7347    5.0937 C.ar    1  UNL1        0.0147
     15 C          59.0607   92.7550    4.1581 C.ar    1  UNL1        0.0012
     16 C          60.4508   92.5795    3.6227 C.ar    1  UNL1        0.0039
     17 C          61.2633   91.3838    4.0228 C.ar    1  UNL1        0.0726
     18 C          60.6856   90.3635    4.9584 C.ar    1  UNL1        0.0185
     19 C          62.6534   91.2083    3.4873 C.3     1  UNL1        0.4186
     20 F          64.0436   91.0329    2.9518 F       1  UNL1       -0.1659
     21 F          62.7580   92.6893    3.2735 F       1  UNL1       -0.1659
     22 F          62.5489   89.7273    3.7011 F       1  UNL1       -0.1659
     23 O          63.3786   88.0238   12.5667 O.3     1  UNL1       -0.4533
     24 C          63.6877   86.8793   13.4857 C.ar    1  UNL1        0.1485
     25 C          64.2796   87.1425   14.8387 C.ar    1  UNL1        0.0582
     26 C          64.5887   85.9980   15.7577 C.ar    1  UNL1        0.1021
     27 N          64.3059   84.5903   15.3237 N.ar    1  UNL1       -0.2406
     28 C          63.7140   84.3270   13.9709 C.ar    1  UNL1        0.1181
     29 C          63.4049   85.4716   13.0518 C.ar    1  UNL1        0.0597
     30 C          63.4311   82.9193   13.5369 C.ar    1  UNL1        0.1585
     31 N          63.1436   81.7585   14.4423 N.ar    1  UNL1       -0.2240
     32 C          62.9209   80.5470   13.5864 C.ar    1  UNL1        0.1214
     33 C          63.0709   80.9590   12.1518 C.ar    1  UNL1        0.1493
     34 N          63.3863   82.4253   12.1213 N.ar    1  UNL1       -0.3329
     35 H          63.5373   82.9680   11.3139 H       1  UNL1        0.1674
     36 C          62.9303   80.0624   10.9576 C.3     1  UNL1        0.4344
     37 F          62.7896   79.1657    9.7634 F       1  UNL1       -0.1644
     38 F          63.3663   81.1850   10.0634 F       1  UNL1       -0.1644
     39 F          62.4943   78.9398   11.8518 F       1  UNL1       -0.1644
@<TRIPOS>BOND
     1     1     2    1
     2     2     3   ar
     3     3    11    1
     4    11    13    1
     5    13    14   ar
     6    14    15   ar
     7    15    16   ar
     8    16    17   ar
     9    17    19    1
    10    19    20    1
    11    19    21    1
    12    19    22    1
    13    17    18   ar
    14     3     4   ar
    15     4     5   ar
    16     5     6   ar
    17     6     7   ar
    18     7    23    1
    19    23    24    1
    20    24    25   ar
    21    25    26   ar
    22    26    27   ar
    23    27    28   ar
    24    28    30    1
    25    30    31   ar
    26    31    32   ar
    27    32    33   ar
    28    33    36    1
    29    36    37    1
    30    36    38    1
    31    36    39    1
    32    33    34   ar
    33    28    29   ar
    34     7     8   ar
    35     8     9   ar
    36     9    10   ar
    37    10     2   ar
    38    18    13   ar
    39    10     5   ar
    40    29    24   ar
    41    34    30   ar
    42    11    12    1
    43    34    35    1
@<TRIPOS>MOLECULE
*****
 39 43 0 0 0
SMALL
GASTEIGER

@<TRIPOS>ATOM
      1 C          59.0077   86.4088    7.3733 C.3     1  UNL1        0.1332
      2 N          59.7131   87.5234    8.0875 N.ar    1  UNL1       -0.2975
      3 C          59.5922   88.9858    7.7764 C.ar    1  UNL1        0.2017
      4 N          60.4676   89.7375    8.7348 N.ar    1  UNL1       -0.2134
      5 C          61.1295   88.7397    9.6383 C.ar    1  UNL1        0.1030
      6 C          62.0966   88.9003   10.7736 C.ar    1  UNL1        0.0581
      7 C          62.5974   87.6926   11.5088 C.ar    1  UNL1        0.1469
      8 C          62.1310   86.3242   11.1087 C.ar    1  UNL1        0.0391
      9 C          61.1639   86.1636    9.9735 C.ar    1  UNL1        0.0219
     10 C          60.6632   87.3713    9.2383 C.ar    1  UNL1        0.0801
     11 N          58.7447   89.5904    6.6964 N.pl3   1  UNL1       -0.2839
     12 H          57.7850   89.3767    6.6463 H       1  UNL1        0.1550
     13 C          59.3595   90.5204    5.6930 C.ar    1  UNL1        0.0504
     14 C          58.5915   91.7142    5.2077 C.ar    1  UNL1        0.0147
     15 C          59.2063   92.6442    4.2043 C.ar    1  UNL1        0.0012
     16 C          60.5890   92.3806    3.6859 C.ar    1  UNL1        0.0039
     17 C          61.3569   91.1870    4.1711 C.ar    1  UNL1        0.0726
     18 C          60.7422   90.2569    5.1746 C.ar    1  UNL1        0.0185
     19 C          62.7396   90.9234    3.6528 C.3     1  UNL1        0.4186
     20 F          64.1223   90.6598    3.1344 F       1  UNL1       -0.1659
     21 F          63.0215   92.3967    3.6556 F       1  UNL1       -0.1659
     22 F          62.4577   89.4501    3.6499 F       1  UNL1       -0.1659
     23 O          63.5645   87.8532   12.6441 O.3     1  UNL1       -0.4533
     24 C          63.7997   89.2082   13.2430 C.ar    1  UNL1        0.1485
     25 C          63.3490   89.4973   14.6443 C.ar    1  UNL1        0.0582
     26 C          63.5842   90.8524   15.2431 C.ar    1  UNL1        0.1021
     27 N          64.2700   91.9182   14.4408 N.ar    1  UNL1       -0.2406
     28 C          64.7206   91.6290   13.0396 C.ar    1  UNL1        0.1181
     29 C          64.4855   90.2740   12.4408 C.ar    1  UNL1        0.0597
     30 C          65.4065   92.6949   12.2373 C.ar    1  UNL1        0.1585
     31 N          65.7784   94.0637   12.7252 N.ar    1  UNL1       -0.2240
     32 C          66.4426   94.7937   11.5956 C.ar    1  UNL1        0.1214
     33 C          66.4811   93.8761   10.4096 C.ar    1  UNL1        0.1493
     34 N          65.8407   92.5789   10.8062 N.ar    1  UNL1       -0.3329
     35 H          65.7257   91.7899   10.2287 H       1  UNL1        0.1674
     36 C          67.0586   94.1990    9.0634 C.3     1  UNL1        0.4344
     37 F          67.6361   94.5219    7.7172 F       1  UNL1       -0.1644
     38 F          68.0172   93.0534    9.1999 F       1  UNL1       -0.1644
     39 F          66.1000   95.3446    8.9269 F       1  UNL1       -0.1644
@<TRIPOS>BOND
     1     1     2    1
     2     2     3   ar
     3     3    11    1
     4    11    13    1
     5    13    14   ar
     6    14    15   ar
     7    15    16   ar
     8    16    17   ar
     9    17    19    1
    10    19    20    1
    11    19    21    1
    12    19    22    1
    13    17    18   ar
    14     3     4   ar
    15     4     5   ar
    16     5     6   ar
    17     6     7   ar
    18     7    23    1
    19    23    24    1
    20    24    25   ar
    21    25    26   ar
    22    26    27   ar
    23    27    28   ar
    24    28    30    1
    25    30    31   ar
    26    31    32   ar
    27    32    33   ar
    28    33    36    1
    29    36    37    1
    30    36    38    1
    31    36    39    1
    32    33    34   ar
    33    28    29   ar
    34     7     8   ar
    35     8     9   ar
    36     9    10   ar
    37    10     2   ar
    38    18    13   ar
    39    10     5   ar
    40    29    24   ar
    41    34    30   ar
    42    11    12    1
    43    34    35    1
@<TRIPOS>MOLECULE
*****
 39 43 0 0 0
SMALL
GASTEIGER

@<TRIPOS>ATOM
      1 C          63.1730   92.9905    1.5872 C.3     1  UNL1        0.1332
      2 N          61.7497   93.0086    2.0602 N.ar    1  UNL1       -0.2975
      3 C          60.6392   93.8354    1.4831 C.ar    1  UNL1        0.2017
      4 N          59.3902   93.5408    2.2597 N.ar    1  UNL1       -0.2134
      5 C          59.7287   92.5318    3.3167 C.ar    1  UNL1        0.1030
      6 C          58.8975   91.8700    4.3756 C.ar    1  UNL1        0.0581
      7 C          59.5246   90.8793    5.3111 C.ar    1  UNL1        0.1469
      8 C          60.9829   90.5504    5.1878 C.ar    1  UNL1        0.0391
      9 C          61.8141   91.2122    4.1290 C.ar    1  UNL1        0.0219
     10 C          61.1870   92.2028    3.1935 C.ar    1  UNL1        0.0801
     11 N          60.7571   94.7895    0.3317 N.pl3   1  UNL1       -0.2839
     12 H          61.1933   95.6629    0.4587 H       1  UNL1        0.1550
     13 C          60.2104   94.4128   -1.0134 C.ar    1  UNL1        0.0504
     14 C          60.9154   94.8569   -2.2607 C.ar    1  UNL1        0.0147
     15 C          60.3687   94.4803   -3.6058 C.ar    1  UNL1        0.0012
     16 C          59.1169   93.6595   -3.7036 C.ar    1  UNL1        0.0039
     17 C          58.4119   93.2154   -2.4563 C.ar    1  UNL1        0.0726
     18 C          58.9586   93.5921   -1.1112 C.ar    1  UNL1        0.0185
     19 C          57.1602   92.3947   -2.5541 C.3     1  UNL1        0.4186
     20 F          55.9085   91.5740   -2.6519 F       1  UNL1       -0.1659
     21 F          56.5767   93.1464   -1.3946 F       1  UNL1       -0.1659
     22 F          57.7436   91.6430   -3.7136 F       1  UNL1       -0.1659
     23 O          58.6934   90.2175    6.3700 O.3     1  UNL1       -0.4533
     24 C          59.3263   89.2473    7.3229 C.ar    1  UNL1        0.1485
     25 C          59.0390   87.7801    7.2004 C.ar    1  UNL1        0.0582
     26 C          59.6720   86.8098    8.1533 C.ar    1  UNL1        0.1021
     27 N          60.5922   87.3068    9.2286 N.ar    1  UNL1       -0.2406
     28 C          60.8795   88.7739    9.3511 C.ar    1  UNL1        0.1181
     29 C          60.2465   89.7441    8.3982 C.ar    1  UNL1        0.0597
     30 C          61.7997   89.2708   10.4264 C.ar    1  UNL1        0.1585
     31 N          62.3612   90.6575   10.5350 N.ar    1  UNL1       -0.2240
     32 C          63.2285   90.7120   11.7576 C.ar    1  UNL1        0.1214
     33 C          63.2030   89.3589   12.4047 C.ar    1  UNL1        0.1493
     34 N          62.3199   88.4682   11.5819 N.ar    1  UNL1       -0.3329
     35 H          62.1174   87.5228   11.7677 H       1  UNL1        0.1674
     36 C          63.9325   88.9656   13.6550 C.3     1  UNL1        0.4344
     37 F          64.6620   88.5723   14.9052 F       1  UNL1       -0.1644
     38 F          63.9462   90.3986   14.0978 F       1  UNL1       -0.1644
     39 F          63.9188   87.5325   13.2121 F       1  UNL1       -0.1644
@<TRIPOS>BOND
     1     1     2    1
     2     2     3   ar
     3     3    11    1
     4    11    13    1
     5    13    14   ar
     6    14    15   ar
     7    15    16   ar
     8    16    17   ar
     9    17    19    1
    10    19    20    1
    11    19    21    1
    12    19    22    1
    13    17    18   ar
    14     3     4   ar
    15     4     5   ar
    16     5     6   ar
    17     6     7   ar
    18     7    23    1
    19    23    24    1
    20    24    25   ar
    21    25    26   ar
    22    26    27   ar
    23    27    28   ar
    24    28    30    1
    25    30    31   ar
    26    31    32   ar
    27    32    33   ar
    28    33    36    1
    29    36    37    1
    30    36    38    1
    31    36    39    1
    32    33    34   ar
    33    28    29   ar
    34     7     8   ar
    35     8     9   ar
    36     9    10   ar
    37    10     2   ar
    38    18    13   ar
    39    10     5   ar
    40    29    24   ar
    41    34    30   ar
    42    11    12    1
    43    34    35    1
