@<TRIPOS>MOLECULE
*****
 36 38 0 0 0
SMALL
GASTEIGER

@<TRIPOS>ATOM
      1 C          63.8394   89.3454   15.7217 C.2     1  UNL1        0.2521
      2 O          63.3533   89.6842   17.0997 O.2     1  UNL1       -0.2698
      3 N          63.6801   87.9512   15.1919 N.am    1  UNL1       -0.2725
      4 C          64.1663   87.6124   13.8139 C.3     1  UNL1        0.1152
      5 C          64.0070   86.2182   13.2841 C.3     1  UNL1        0.1137
      6 N          63.3616   85.1627   14.1323 N.pl3   1  UNL1       -0.2880
      7 C          62.8755   85.5014   15.5103 C.3     1  UNL1        0.1137
      8 C          63.0348   86.8957   16.0401 C.3     1  UNL1        0.1152
      9 C          63.2024   83.7684   13.6025 C.ar    1  UNL1        0.1594
     10 N          63.5698   82.5937   14.4600 N.ar    1  UNL1       -0.2269
     11 C          63.4106   81.1995   13.9302 C.ar    1  UNL1        0.1043
     12 C          62.8839   80.9799   12.5429 C.ar    1  UNL1        0.0929
     13 C          62.5164   82.1545   11.6855 C.ar    1  UNL1        0.0380
     14 C          62.6757   83.5488   12.2153 C.ar    1  UNL1        0.1715
     15 F          62.3082   84.7235   11.3579 F       1  UNL1       -0.2012
     16 C          62.7246   79.5856   12.0131 C.3     1  UNL1        0.4201
     17 F          62.5653   78.1914   11.4833 F       1  UNL1       -0.1658
     18 F          62.9780   80.0854   10.6217 F       1  UNL1       -0.1658
     19 F          62.4712   79.0859   13.4045 F       1  UNL1       -0.1658
     20 C          63.8303   90.8419   13.5979 C.ar    1  UNL1        0.1427
     21 C          64.4756   91.8973   12.7498 C.ar    1  UNL1        0.0384
     22 C          65.7756   92.5118   13.1771 C.ar    1  UNL1        0.0215
     23 C          66.4301   92.0708   14.4527 C.ar    1  UNL1        0.1061
     24 C          65.7847   91.0154   15.3008 C.ar    1  UNL1        0.0259
     25 C          64.4848   90.4009   14.8735 C.ar    1  UNL1        0.0887
     26 S          67.7300   92.6853   14.8800 S.O2    1  UNL1        0.0105
     27 C          69.0299   93.2997   15.3074 C.3     1  UNL1        0.1816
     28 O          67.1228   93.0503   16.2022 O.2     1  UNL1       -0.1686
     29 O          68.3372   92.3203   13.5579 O.2     1  UNL1       -0.1686
     30 O          62.5303   90.2274   13.1706 O.3     1  UNL1       -0.4790
     31 C          63.0094   90.7668   10.6747 C.3     1  UNL1        0.0472
     32 C          62.2537   89.9942   11.7149 C.3     1  UNL1        0.1658
     33 C          61.2213   88.9884   11.2994 C.3     1  UNL1        0.0368
     34 C          60.1562   89.8049   11.9692 C.3     1  UNL1        0.0036
     35 C          62.2865   88.1719   10.6295 C.3     1  UNL1        0.0036
     36 C          60.1890   87.9826   10.8838 C.3     1  UNL1        0.0036
@<TRIPOS>BOND
     1    32    31    1
     2    32    30    1
     3    30    20    1
     4    20    21   ar
     5    21    22   ar
     6    22    23   ar
     7    23    26    1
     8    26    27    1
     9    26    28    2
    10    26    29    2
    11    23    24   ar
    12    24    25   ar
    13    25     1    1
    14     1     2    2
    15     1     3   am
    16     3     4    1
    17     4     5    1
    18     5     6    1
    19     6     9    1
    20     9    10   ar
    21    10    11   ar
    22    11    12   ar
    23    12    16    1
    24    16    17    1
    25    16    18    1
    26    16    19    1
    27    12    13   ar
    28    13    14   ar
    29    14    15    1
    30     6     7    1
    31     7     8    1
    32    32    33    1
    33    33    34    1
    34    33    35    1
    35    33    36    1
    36    25    20   ar
    37     8     3    1
    38    14     9   ar
@<TRIPOS>MOLECULE
*****
 36 38 0 0 0
SMALL
GASTEIGER

@<TRIPOS>ATOM
      1 C          63.6984   88.5132   15.3880 C.2     1  UNL1        0.2521
      2 O          63.3931   88.6795   16.8471 O.2     1  UNL1       -0.2698
      3 N          63.5585   87.1671   14.7411 N.am    1  UNL1       -0.2725
      4 C          63.8638   87.0008   13.2819 C.3     1  UNL1        0.1152
      5 C          63.7238   85.6547   12.6350 C.3     1  UNL1        0.1137
      6 N          63.2786   84.4749   13.4474 N.pl3   1  UNL1       -0.2880
      7 C          62.9733   84.6412   14.9065 C.3     1  UNL1        0.1137
      8 C          63.1132   85.9873   15.5534 C.3     1  UNL1        0.1152
      9 C          63.1386   83.1288   12.8005 C.ar    1  UNL1        0.1594
     10 N          63.5606   82.9346   11.3742 N.ar    1  UNL1       -0.2269
     11 C          63.4206   81.5885   10.7273 C.ar    1  UNL1        0.1043
     12 C          62.8587   80.4366   11.5068 C.ar    1  UNL1        0.0929
     13 C          62.4368   80.6308   12.9331 C.ar    1  UNL1        0.0380
     14 C          62.5768   81.9769   13.5799 C.ar    1  UNL1        0.1715
     15 F          62.1549   82.1711   15.0062 F       1  UNL1       -0.2012
     16 C          62.7188   79.0905   10.8600 C.3     1  UNL1        0.4201
     17 F          62.5789   77.7444   10.2131 F       1  UNL1       -0.1658
     18 F          62.9118   79.7184    9.5115 F       1  UNL1       -0.1658
     19 F          62.5258   78.4626   12.2084 F       1  UNL1       -0.1658
     20 C          63.2910   90.1909   13.4465 C.ar    1  UNL1        0.1427
     21 C          63.7363   91.3707   12.6342 C.ar    1  UNL1        0.0384
     22 C          65.0342   92.0526   12.9511 C.ar    1  UNL1        0.0215
     23 C          65.8869   91.5547   14.0802 C.ar    1  UNL1        0.1061
     24 C          65.4416   90.3749   14.8925 C.ar    1  UNL1        0.0259
     25 C          64.1437   89.6930   14.5756 C.ar    1  UNL1        0.0887
     26 S          67.1848   92.2365   14.3971 S.O2    1  UNL1        0.0105
     27 C          68.4828   92.9184   14.7139 C.3     1  UNL1        0.1816
     28 O          66.7374   92.4290   15.8158 O.2     1  UNL1       -0.1686
     29 O          67.6323   92.0441   12.9783 O.2     1  UNL1       -0.1686
     30 O          61.9931   89.5091   13.1296 O.3     1  UNL1       -0.4790
     31 C          60.4513   90.7302   11.4320 C.3     1  UNL1        0.0472
     32 C          61.4049   89.6180   11.7541 C.3     1  UNL1        0.1658
     33 C          61.7703   88.6147   10.7005 C.3     1  UNL1        0.0368
     34 C          60.8389   87.6189   11.3257 C.3     1  UNL1        0.0036
     35 C          62.7016   89.6105   10.0753 C.3     1  UNL1        0.0036
     36 C          62.1356   87.6115    9.6470 C.3     1  UNL1        0.0036
@<TRIPOS>BOND
     1    32    31    1
     2    32    30    1
     3    30    20    1
     4    20    21   ar
     5    21    22   ar
     6    22    23   ar
     7    23    26    1
     8    26    27    1
     9    26    28    2
    10    26    29    2
    11    23    24   ar
    12    24    25   ar
    13    25     1    1
    14     1     2    2
    15     1     3   am
    16     3     4    1
    17     4     5    1
    18     5     6    1
    19     6     9    1
    20     9    10   ar
    21    10    11   ar
    22    11    12   ar
    23    12    16    1
    24    16    17    1
    25    16    18    1
    26    16    19    1
    27    12    13   ar
    28    13    14   ar
    29    14    15    1
    30     6     7    1
    31     7     8    1
    32    32    33    1
    33    33    34    1
    34    33    35    1
    35    33    36    1
    36    25    20   ar
    37     8     3    1
    38    14     9   ar
@<TRIPOS>MOLECULE
*****
 36 38 0 0 0
SMALL
GASTEIGER

@<TRIPOS>ATOM
      1 C          63.5071   90.8006   11.6632 C.2     1  UNL1        0.2521
      2 O          62.7968   91.4689   10.5235 O.2     1  UNL1       -0.2698
      3 N          63.3090   89.3351   11.9144 N.am    1  UNL1       -0.2725
      4 C          64.0194   88.6668   13.0541 C.3     1  UNL1        0.1152
      5 C          63.8213   87.2013   13.3053 C.3     1  UNL1        0.1137
      6 N          62.9130   86.4041   12.4167 N.pl3   1  UNL1       -0.2880
      7 C          62.2027   87.0724   11.2771 C.3     1  UNL1        0.1137
      8 C          62.4008   88.5379   11.0259 C.3     1  UNL1        0.1152
      9 C          62.7150   84.9386   12.6679 C.ar    1  UNL1        0.1594
     10 N          62.3407   84.4564   14.0381 N.ar    1  UNL1       -0.2269
     11 C          62.1427   82.9909   14.2893 C.ar    1  UNL1        0.1043
     12 C          62.3189   82.0076   13.1703 C.ar    1  UNL1        0.0929
     13 C          62.6931   82.4899   11.8001 C.ar    1  UNL1        0.0380
     14 C          62.8912   83.9554   11.5489 C.ar    1  UNL1        0.1715
     15 F          63.2654   84.4376   10.1787 F       1  UNL1       -0.2012
     16 C          62.1209   80.5421   13.4214 C.3     1  UNL1        0.4201
     17 F          61.9228   79.0766   13.6726 F       1  UNL1       -0.1658
     18 F          63.0524   80.2223   12.2901 F       1  UNL1       -0.1658
     19 F          61.1894   80.8619   14.5528 F       1  UNL1       -0.1658
     20 C          65.4968   92.4463   11.9512 C.ar    1  UNL1        0.1427
     21 C          66.4051   93.2434   12.8397 C.ar    1  UNL1        0.0384
     22 C          66.2320   93.1921   14.3288 C.ar    1  UNL1        0.0215
     23 C          65.1506   92.3437   14.9294 C.ar    1  UNL1        0.1061
     24 C          64.2423   91.5465   14.0408 C.ar    1  UNL1        0.0259
     25 C          64.4154   91.5978   12.5517 C.ar    1  UNL1        0.0887
     26 S          64.9775   92.2924   16.4185 S.O2    1  UNL1        0.0105
     27 C          64.8044   92.2411   17.9076 C.3     1  UNL1        0.1816
     28 O          63.5615   91.8316   16.2380 O.2     1  UNL1       -0.1686
     29 O          66.3935   92.7531   16.5989 O.2     1  UNL1       -0.1686
     30 O          65.6699   92.4976   10.4621 O.3     1  UNL1       -0.4790
     31 C          68.1591   92.0056    9.9038 C.3     1  UNL1        0.0472
     32 C          66.9796   92.9318    9.8738 C.3     1  UNL1        0.1658
     33 C          67.1098   94.2922    9.2555 C.3     1  UNL1        0.0368
     34 C          65.8397   94.7200    9.9291 C.3     1  UNL1        0.0036
     35 C          68.3799   93.8644    8.5819 C.3     1  UNL1        0.0036
     36 C          67.2401   95.6526    8.6371 C.3     1  UNL1        0.0036
@<TRIPOS>BOND
     1    32    31    1
     2    32    30    1
     3    30    20    1
     4    20    21   ar
     5    21    22   ar
     6    22    23   ar
     7    23    26    1
     8    26    27    1
     9    26    28    2
    10    26    29    2
    11    23    24   ar
    12    24    25   ar
    13    25     1    1
    14     1     2    2
    15     1     3   am
    16     3     4    1
    17     4     5    1
    18     5     6    1
    19     6     9    1
    20     9    10   ar
    21    10    11   ar
    22    11    12   ar
    23    12    16    1
    24    16    17    1
    25    16    18    1
    26    16    19    1
    27    12    13   ar
    28    13    14   ar
    29    14    15    1
    30     6     7    1
    31     7     8    1
    32    32    33    1
    33    33    34    1
    34    33    35    1
    35    33    36    1
    36    25    20   ar
    37     8     3    1
    38    14     9   ar
@<TRIPOS>MOLECULE
*****
 36 38 0 0 0
SMALL
GASTEIGER

@<TRIPOS>ATOM
      1 C          60.0094   88.7427   10.8136 C.2     1  UNL1        0.2521
      2 O          58.8452   88.3822   11.6880 O.2     1  UNL1       -0.2698
      3 N          61.2227   89.3923   11.4102 N.am    1  UNL1       -0.2725
      4 C          62.3869   89.7529   10.5357 C.3     1  UNL1        0.1152
      5 C          63.6002   90.4025   11.1324 C.3     1  UNL1        0.1137
      6 N          63.6492   90.6916   12.6035 N.pl3   1  UNL1       -0.2880
      7 C          62.4850   90.3311   13.4779 C.3     1  UNL1        0.1137
      8 C          61.2718   89.6814   12.8812 C.3     1  UNL1        0.1152
      9 C          64.8625   91.3412   13.2001 C.ar    1  UNL1        0.1594
     10 N          65.3443   92.6594   12.6706 N.ar    1  UNL1       -0.2269
     11 C          66.5576   93.3090   13.2672 C.ar    1  UNL1        0.1043
     12 C          67.2890   92.6405   14.3934 C.ar    1  UNL1        0.0929
     13 C          66.8072   91.3224   14.9228 C.ar    1  UNL1        0.0380
     14 C          65.5939   90.6727   14.3262 C.ar    1  UNL1        0.1715
     15 F          65.1121   89.3545   14.8557 F       1  UNL1       -0.2012
     16 C          68.5023   93.2901   14.9900 C.3     1  UNL1        0.4201
     17 F          69.7155   93.9397   15.5866 F       1  UNL1       -0.1658
     18 F          69.3842   92.4130   14.1516 F       1  UNL1       -0.1658
     19 F          67.6204   94.1672   15.8284 F       1  UNL1       -0.1658
     20 C          60.3279   87.0914    8.8332 C.ar    1  UNL1        0.1427
     21 C          60.2788   86.8024    7.3621 C.ar    1  UNL1        0.0384
     22 C          59.8623   87.8755    6.4004 C.ar    1  UNL1        0.0215
     23 C          59.4949   89.2377    6.9097 C.ar    1  UNL1        0.1061
     24 C          59.5439   89.5267    8.3807 C.ar    1  UNL1        0.0259
     25 C          59.9604   88.4536    9.3425 C.ar    1  UNL1        0.0887
     26 S          59.0784   90.3108    5.9479 S.O2    1  UNL1        0.0105
     27 C          58.6619   91.3839    4.9862 C.3     1  UNL1        0.1816
     28 O          60.5152   90.5435    5.5853 O.2     1  UNL1       -0.1686
     29 O          57.6416   90.0781    6.3105 O.2     1  UNL1       -0.1686
     30 O          60.7444   86.0183    9.7949 O.3     1  UNL1       -0.4790
     31 C          62.9658   85.6145    8.5096 C.3     1  UNL1        0.0472
     32 C          62.1433   85.4786    9.7566 C.3     1  UNL1        0.1658
     33 C          62.7200   84.8030   10.9654 C.3     1  UNL1        0.0368
     34 C          63.4817   83.8643   10.0774 C.3     1  UNL1        0.0036
     35 C          61.9582   85.7417   11.8534 C.3     1  UNL1        0.0036
     36 C          63.2965   84.1274   12.1742 C.3     1  UNL1        0.0036
@<TRIPOS>BOND
     1    32    31    1
     2    32    30    1
     3    30    20    1
     4    20    21   ar
     5    21    22   ar
     6    22    23   ar
     7    23    26    1
     8    26    27    1
     9    26    28    2
    10    26    29    2
    11    23    24   ar
    12    24    25   ar
    13    25     1    1
    14     1     2    2
    15     1     3   am
    16     3     4    1
    17     4     5    1
    18     5     6    1
    19     6     9    1
    20     9    10   ar
    21    10    11   ar
    22    11    12   ar
    23    12    16    1
    24    16    17    1
    25    16    18    1
    26    16    19    1
    27    12    13   ar
    28    13    14   ar
    29    14    15    1
    30     6     7    1
    31     7     8    1
    32    32    33    1
    33    33    34    1
    34    33    35    1
    35    33    36    1
    36    25    20   ar
    37     8     3    1
    38    14     9   ar
@<TRIPOS>MOLECULE
*****
 36 38 0 0 0
SMALL
GASTEIGER

@<TRIPOS>ATOM
      1 C          62.4493   90.2720   11.1619 C.2     1  UNL1        0.2521
      2 O          61.3325   90.8825   10.3683 O.2     1  UNL1       -0.2698
      3 N          62.4450   88.8006   11.4536 N.am    1  UNL1       -0.2725
      4 C          63.5619   88.1900   12.2472 C.3     1  UNL1        0.1152
      5 C          63.5576   86.7187   12.5389 C.3     1  UNL1        0.1137
      6 N          62.4364   85.8579   12.0368 N.pl3   1  UNL1       -0.2880
      7 C          61.3196   86.4684   11.2432 C.3     1  UNL1        0.1137
      8 C          61.3239   87.9398   10.9516 C.3     1  UNL1        0.1152
      9 C          62.4321   84.3865   12.3285 C.ar    1  UNL1        0.1594
     10 N          62.0710   83.8946   13.6988 N.ar    1  UNL1       -0.2269
     11 C          62.0667   82.4232   13.9905 C.ar    1  UNL1        0.1043
     12 C          62.4234   81.4438   12.9118 C.ar    1  UNL1        0.0929
     13 C          62.7845   81.9357   11.5415 C.ar    1  UNL1        0.0380
     14 C          62.7888   83.4071   11.2499 C.ar    1  UNL1        0.1715
     15 F          63.1498   83.8990    9.8796 F       1  UNL1       -0.2012
     16 C          62.4191   79.9724   13.2034 C.3     1  UNL1        0.4201
     17 F          62.4148   78.5010   13.4950 F       1  UNL1       -0.1658
     18 F          62.7685   79.6878   11.7727 F       1  UNL1       -0.1658
     19 F          62.0697   80.2570   14.6341 F       1  UNL1       -0.1658
     20 C          63.8276   91.2456   13.1374 C.ar    1  UNL1        0.1427
     21 C          64.9488   92.1064   13.6393 C.ar    1  UNL1        0.0384
     22 C          65.8129   92.8543   12.6678 C.ar    1  UNL1        0.0215
     23 C          65.5559   92.7415   11.1943 C.ar    1  UNL1        0.1061
     24 C          64.4347   91.8807   10.6924 C.ar    1  UNL1        0.0259
     25 C          63.5706   91.1328   11.6639 C.ar    1  UNL1        0.0887
     26 S          66.4201   93.4894   10.2228 S.O2    1  UNL1        0.0105
     27 C          67.2842   94.2373    9.2513 C.3     1  UNL1        0.1816
     28 O          67.2182   92.2440    9.9740 O.2     1  UNL1       -0.1686
     29 O          65.6219   94.7348   10.4716 O.2     1  UNL1       -0.1686
     30 O          62.9634   90.4977   14.1089 O.3     1  UNL1       -0.4790
     31 C          63.9502   91.2507   16.3913 C.3     1  UNL1        0.0472
     32 C          63.4881   90.1587   15.4726 C.3     1  UNL1        0.1658
     33 C          63.5509   88.7275   15.9176 C.3     1  UNL1        0.0368
     34 C          62.3820   88.9595   16.8286 C.3     1  UNL1        0.0036
     35 C          64.7197   88.4955   15.0067 C.3     1  UNL1        0.0036
     36 C          63.6136   87.2964   16.3626 C.3     1  UNL1        0.0036
@<TRIPOS>BOND
     1    32    31    1
     2    32    30    1
     3    30    20    1
     4    20    21   ar
     5    21    22   ar
     6    22    23   ar
     7    23    26    1
     8    26    27    1
     9    26    28    2
    10    26    29    2
    11    23    24   ar
    12    24    25   ar
    13    25     1    1
    14     1     2    2
    15     1     3   am
    16     3     4    1
    17     4     5    1
    18     5     6    1
    19     6     9    1
    20     9    10   ar
    21    10    11   ar
    22    11    12   ar
    23    12    16    1
    24    16    17    1
    25    16    18    1
    26    16    19    1
    27    12    13   ar
    28    13    14   ar
    29    14    15    1
    30     6     7    1
    31     7     8    1
    32    32    33    1
    33    33    34    1
    34    33    35    1
    35    33    36    1
    36    25    20   ar
    37     8     3    1
    38    14     9   ar
@<TRIPOS>MOLECULE
*****
 36 38 0 0 0
SMALL
GASTEIGER

@<TRIPOS>ATOM
      1 C          64.0370   88.1351   14.1558 C.2     1  UNL1        0.2521
      2 O          64.5803   88.3793   15.5325 O.2     1  UNL1       -0.2698
      3 N          63.8472   86.7313   13.6626 N.am    1  UNL1       -0.2725
      4 C          63.3039   86.4870   12.2859 C.3     1  UNL1        0.1152
      5 C          63.1141   85.0832   11.7927 C.3     1  UNL1        0.1137
      6 N          63.4675   83.9236   12.6762 N.pl3   1  UNL1       -0.2880
      7 C          64.0107   84.1679   14.0528 C.3     1  UNL1        0.1137
      8 C          64.2006   85.5717   14.5460 C.3     1  UNL1        0.1152
      9 C          63.2776   82.5198   12.1830 C.ar    1  UNL1        0.1594
     10 N          62.7873   81.4556   13.1197 N.ar    1  UNL1       -0.2269
     11 C          62.5975   80.0518   12.6265 C.ar    1  UNL1        0.1043
     12 C          62.8979   79.7122   11.1966 C.ar    1  UNL1        0.0929
     13 C          63.3882   80.7763   10.2600 C.ar    1  UNL1        0.0380
     14 C          63.5781   82.1801   10.7532 C.ar    1  UNL1        0.1715
     15 F          64.0684   83.2443    9.8166 F       1  UNL1       -0.2012
     16 C          62.7081   78.3083   10.7034 C.3     1  UNL1        0.4201
     17 F          62.5182   76.9045   10.2102 F       1  UNL1       -0.1658
     18 F          62.6801   77.8146   12.1195 F       1  UNL1       -0.1658
     19 F          62.7361   78.8021    9.2873 F       1  UNL1       -0.1658
     20 C          64.4580   90.5755   13.3703 C.ar    1  UNL1        0.1427
     21 C          64.1046   91.7350   12.4868 C.ar    1  UNL1        0.0384
     22 C          62.9767   91.6137   11.5053 C.ar    1  UNL1        0.0215
     23 C          62.2023   90.3328   11.4074 C.ar    1  UNL1        0.1061
     24 C          62.5558   89.1733   12.2909 C.ar    1  UNL1        0.0259
     25 C          63.6836   89.2947   13.2723 C.ar    1  UNL1        0.0887
     26 S          61.0745   90.2114   10.4259 S.O2    1  UNL1        0.0105
     27 C          59.9466   90.0901    9.4445 C.3     1  UNL1        0.1816
     28 O          60.1361   90.8128   11.4299 O.2     1  UNL1       -0.1686
     29 O          62.0128   89.6101    9.4220 O.2     1  UNL1       -0.1686
     30 O          65.5859   90.6969   14.3517 O.3     1  UNL1       -0.4790
     31 C          67.2521   91.7879   12.6834 C.3     1  UNL1        0.0472
     32 C          66.7201   91.6395   14.0780 C.3     1  UNL1        0.1658
     33 C          67.3224   92.4338   15.1989 C.3     1  UNL1        0.0368
     34 C          65.9736   92.5434   15.8460 C.3     1  UNL1        0.0036
     35 C          68.6711   92.3242   14.5518 C.3     1  UNL1        0.0036
     36 C          67.9247   93.2280   16.3198 C.3     1  UNL1        0.0036
@<TRIPOS>BOND
     1    32    31    1
     2    32    30    1
     3    30    20    1
     4    20    21   ar
     5    21    22   ar
     6    22    23   ar
     7    23    26    1
     8    26    27    1
     9    26    28    2
    10    26    29    2
    11    23    24   ar
    12    24    25   ar
    13    25     1    1
    14     1     2    2
    15     1     3   am
    16     3     4    1
    17     4     5    1
    18     5     6    1
    19     6     9    1
    20     9    10   ar
    21    10    11   ar
    22    11    12   ar
    23    12    16    1
    24    16    17    1
    25    16    18    1
    26    16    19    1
    27    12    13   ar
    28    13    14   ar
    29    14    15    1
    30     6     7    1
    31     7     8    1
    32    32    33    1
    33    33    34    1
    34    33    35    1
    35    33    36    1
    36    25    20   ar
    37     8     3    1
    38    14     9   ar
@<TRIPOS>MOLECULE
*****
 36 38 0 0 0
SMALL
GASTEIGER

@<TRIPOS>ATOM
      1 C          63.8840   88.1361   13.6572 C.2     1  UNL1        0.2521
      2 O          64.5401   88.4790   14.9617 O.2     1  UNL1       -0.2698
      3 N          63.7138   86.7003   13.2578 N.am    1  UNL1       -0.2725
      4 C          63.0576   86.3574   11.9532 C.3     1  UNL1        0.1152
      5 C          62.8874   84.9216   11.5538 C.3     1  UNL1        0.1137
      6 N          63.3734   83.8287   12.4590 N.pl3   1  UNL1       -0.2880
      7 C          64.0295   84.1716   13.7635 C.3     1  UNL1        0.1137
      8 C          64.1997   85.6074   14.1629 C.3     1  UNL1        0.1152
      9 C          63.2032   82.3929   12.0596 C.ar    1  UNL1        0.1594
     10 N          63.5047   81.9646   10.6539 N.ar    1  UNL1       -0.2269
     11 C          63.3345   80.5288   10.2545 C.ar    1  UNL1        0.1043
     12 C          62.8628   79.5213   11.2608 C.ar    1  UNL1        0.0929
     13 C          62.5614   79.9496   12.6664 C.ar    1  UNL1        0.0380
     14 C          62.7316   81.3854   13.0658 C.ar    1  UNL1        0.1715
     15 F          62.4301   81.8136   14.4714 F       1  UNL1       -0.2012
     16 C          62.6926   78.0855   10.8614 C.3     1  UNL1        0.4201
     17 F          62.5224   76.6497   10.4620 F       1  UNL1       -0.1658
     18 F          62.6827   78.4886    9.4166 F       1  UNL1       -0.1658
     19 F          62.7026   77.6824   12.3062 F       1  UNL1       -0.1658
     20 C          63.9929   90.6026   12.8482 C.ar    1  UNL1        0.1427
     21 C          63.5069   91.6955   11.9430 C.ar    1  UNL1        0.0384
     22 C          62.4260   91.4147   10.9416 C.ar    1  UNL1        0.0215
     23 C          61.8311   90.0412   10.8453 C.ar    1  UNL1        0.1061
     24 C          62.3171   88.9483   11.7505 C.ar    1  UNL1        0.0259
     25 C          63.3980   89.2290   12.7520 C.ar    1  UNL1        0.0887
     26 S          60.7502   89.7604    9.8439 S.O2    1  UNL1        0.0105
     27 C          59.6693   89.4797    8.8425 C.3     1  UNL1        0.1816
     28 O          59.9425   90.8969   10.3971 O.2     1  UNL1       -0.1686
     29 O          61.5578   88.6239    9.2907 O.2     1  UNL1       -0.1686
     30 O          65.0738   90.8833   13.8496 O.3     1  UNL1       -0.4790
     31 C          66.5497   92.0844   12.0806 C.3     1  UNL1        0.0472
     32 C          66.1771   91.8423   13.5133 C.3     1  UNL1        0.1658
     33 C          66.9078   92.5592   14.6098 C.3     1  UNL1        0.0368
     34 C          67.2937   91.2417   15.2141 C.3     1  UNL1        0.0036
     35 C          66.5219   93.8767   14.0054 C.3     1  UNL1        0.0036
     36 C          67.6385   93.2761   15.7061 C.3     1  UNL1        0.0036
@<TRIPOS>BOND
     1    32    31    1
     2    32    30    1
     3    30    20    1
     4    20    21   ar
     5    21    22   ar
     6    22    23   ar
     7    23    26    1
     8    26    27    1
     9    26    28    2
    10    26    29    2
    11    23    24   ar
    12    24    25   ar
    13    25     1    1
    14     1     2    2
    15     1     3   am
    16     3     4    1
    17     4     5    1
    18     5     6    1
    19     6     9    1
    20     9    10   ar
    21    10    11   ar
    22    11    12   ar
    23    12    16    1
    24    16    17    1
    25    16    18    1
    26    16    19    1
    27    12    13   ar
    28    13    14   ar
    29    14    15    1
    30     6     7    1
    31     7     8    1
    32    32    33    1
    33    33    34    1
    34    33    35    1
    35    33    36    1
    36    25    20   ar
    37     8     3    1
    38    14     9   ar
