@<TRIPOS>MOLECULE
*****
 36 40 0 0 0
SMALL
GASTEIGER

@<TRIPOS>ATOM
      1 C          64.1362   91.3891   13.0454 C.3     1  UNL1        0.1909
      2 C          63.8644   91.4467   11.5714 C.3     1  UNL1        0.1783
      3 O          64.7261   92.5243   10.9828 O.3     1  UNL1       -0.3267
      4 C          65.5305   93.1326   12.0931 C.3     1  UNL1        0.2296
      5 O          65.1660   92.4311   13.3679 O.3     1  UNL1       -0.3255
      6 C          66.0875   93.9992   11.0029 C.ar    1  UNL1        0.0409
      7 C          65.5718   95.3955   10.8174 C.ar    1  UNL1        0.0022
      8 C          66.1288   96.2622    9.7272 C.ar    1  UNL1        0.0113
      9 C          67.2015   95.7325    8.8224 C.ar    1  UNL1        0.0585
     10 CL         67.7586   96.5991    7.7321 Cl      1  UNL1       -0.0822
     11 C          67.7173   94.3362    9.0078 C.ar    1  UNL1        0.0226
     12 C          67.1603   93.4696   10.0980 C.ar    1  UNL1        0.0591
     13 CL         67.6760   92.0733   10.2835 Cl      1  UNL1       -0.0824
     14 C          63.4916   90.4537   14.0249 C.3     1  UNL1        0.2374
     15 O          64.2785   89.3161   14.6050 O.3     1  UNL1       -0.4727
     16 C          63.6419   85.1309   13.0791 C.ar    1  UNL1        0.0481
     17 C          63.1440   86.3024   12.2855 C.ar    1  UNL1        0.0176
     18 C          63.3562   87.6974   12.7942 C.ar    1  UNL1        0.0382
     19 C          64.0663   87.9210   14.0964 C.ar    1  UNL1        0.1388
     20 C          64.5642   86.7496   14.8899 C.ar    1  UNL1        0.0382
     21 C          64.3520   85.3545   14.3813 C.ar    1  UNL1        0.0176
     22 C          62.9684   79.2494    9.5855 C.3     1  UNL1        0.0948
     23 C          62.7931   79.5506   11.0445 C.2     1  UNL1        0.2262
     24 O          62.4055   78.4567   11.9947 O.2     1  UNL1       -0.2749
     25 N          63.0053   80.9457   11.5531 N.am    1  UNL1       -0.2760
     26 C          63.3928   82.0396   10.6028 C.3     1  UNL1        0.1148
     27 C          63.6050   83.4347   11.1115 C.3     1  UNL1        0.1123
     28 N          63.4297   83.7358   12.5704 N.pl3   1  UNL1       -0.3041
     29 C          63.0421   82.6419   13.5207 C.3     1  UNL1        0.1123
     30 C          62.8299   81.2468   13.0120 C.3     1  UNL1        0.1148
     31 C          66.4514   93.9221   12.9756 C.3     1  UNL1        0.1682
     32 N          67.2567   93.2264   14.0327 N.ar    1  UNL1       -0.3025
     33 C          67.4445   93.6910   15.4464 C.ar    1  UNL1        0.0982
     34 C          68.3194   92.6957   16.1491 C.ar    1  UNL1        0.1193
     35 N          68.6723   91.6158   15.1696 N.ar    1  UNL1       -0.2223
     36 C          68.0155   91.9439   13.8615 C.ar    1  UNL1        0.1788
@<TRIPOS>BOND
     1    22    23    1
     2    23    24    2
     3    23    25   am
     4    25    26    1
     5    26    27    1
     6    27    28    1
     7    28    16    1
     8    16    17   ar
     9    17    18   ar
    10    18    19   ar
    11    19    15    1
    12    15    14    1
    13    14     1    1
    14     1     2    1
    15     2     3    1
    16     3     4    1
    17     4    31    1
    18    31    32    1
    19    32    33   ar
    20    33    34   ar
    21    34    35   ar
    22    35    36   ar
    23     4     6    1
    24     6     7   ar
    25     7     8   ar
    26     8     9   ar
    27     9    10    1
    28     9    11   ar
    29    11    12   ar
    30    12    13    1
    31     4     5    1
    32    19    20   ar
    33    20    21   ar
    34    28    29    1
    35    29    30    1
    36    30    25    1
    37    21    16   ar
    38     5     1    1
    39    36    32   ar
    40    12     6   ar
@<TRIPOS>MOLECULE
*****
 36 40 0 0 0
SMALL
GASTEIGER

@<TRIPOS>ATOM
      1 C          63.9508   85.7914   15.0555 C.3     1  UNL1        0.1909
      2 C          64.8700   84.6088   14.9738 C.3     1  UNL1        0.1783
      3 O          64.3798   83.7160   13.8726 O.3     1  UNL1       -0.3267
      4 C          63.1577   84.3467   13.2738 C.3     1  UNL1        0.2296
      5 O          62.8925   85.6294   14.0049 O.3     1  UNL1       -0.3255
      6 C          63.1678   83.1434   12.3785 C.ar    1  UNL1        0.0409
      7 C          63.8618   83.2028   11.0500 C.ar    1  UNL1        0.0022
      8 C          63.8719   81.9994   10.1546 C.ar    1  UNL1        0.0113
      9 C          63.1880   80.7366   10.5877 C.ar    1  UNL1        0.0585
     10 CL         63.1981   79.5331    9.6923 Cl      1  UNL1       -0.0822
     11 C          62.4940   80.6771   11.9162 C.ar    1  UNL1        0.0226
     12 C          62.4839   81.8805   12.8115 C.ar    1  UNL1        0.0591
     13 CL         61.7899   81.8211   14.1400 Cl      1  UNL1       -0.0824
     14 C          64.0692   86.9352   16.0188 C.3     1  UNL1        0.2374
     15 O          63.2700   88.1855   15.8002 O.3     1  UNL1       -0.4727
     16 C          64.8074   91.3836   13.0328 C.ar    1  UNL1        0.0481
     17 C          63.4942   90.7157   12.7509 C.ar    1  UNL1        0.0176
     18 C          62.9818   89.6496   13.6734 C.ar    1  UNL1        0.0382
     19 C          63.7824   89.2516   14.8777 C.ar    1  UNL1        0.1388
     20 C          65.0955   89.9195   15.1596 C.ar    1  UNL1        0.0382
     21 C          65.6080   90.9856   14.2371 C.ar    1  UNL1        0.0176
     22 C          67.5482   96.8556    9.9030 C.3     1  UNL1        0.0948
     23 C          66.8572   95.6478    9.3429 C.2     1  UNL1        0.2262
     24 O          66.6788   95.5060    7.8604 O.2     1  UNL1       -0.2749
     25 N          66.3448   94.5817   10.2654 N.am    1  UNL1       -0.2760
     26 C          66.5233   94.7235   11.7479 C.3     1  UNL1        0.1148
     27 C          66.0108   93.6575   12.6704 C.3     1  UNL1        0.1123
     28 N          65.3198   92.4497   12.1103 N.pl3   1  UNL1       -0.3041
     29 C          65.1414   92.3079   10.6278 C.3     1  UNL1        0.1123
     30 C          65.6538   93.3739    9.7053 C.3     1  UNL1        0.1148
     31 C          61.9376   84.7260   12.4878 C.3     1  UNL1        0.1682
     32 N          62.0249   85.7901   11.4343 N.ar    1  UNL1       -0.3025
     33 C          61.6410   85.6368    9.9924 C.ar    1  UNL1        0.0982
     34 C          61.8903   86.9463    9.3047 C.ar    1  UNL1        0.1193
     35 N          62.4282   87.9089   10.3215 N.ar    1  UNL1       -0.2223
     36 C          62.5114   87.1943   11.6377 C.ar    1  UNL1        0.1788
@<TRIPOS>BOND
     1    22    23    1
     2    23    24    2
     3    23    25   am
     4    25    26    1
     5    26    27    1
     6    27    28    1
     7    28    16    1
     8    16    17   ar
     9    17    18   ar
    10    18    19   ar
    11    19    15    1
    12    15    14    1
    13    14     1    1
    14     1     2    1
    15     2     3    1
    16     3     4    1
    17     4    31    1
    18    31    32    1
    19    32    33   ar
    20    33    34   ar
    21    34    35   ar
    22    35    36   ar
    23     4     6    1
    24     6     7   ar
    25     7     8   ar
    26     8     9   ar
    27     9    10    1
    28     9    11   ar
    29    11    12   ar
    30    12    13    1
    31     4     5    1
    32    19    20   ar
    33    20    21   ar
    34    28    29    1
    35    29    30    1
    36    30    25    1
    37    21    16   ar
    38     5     1    1
    39    36    32   ar
    40    12     6   ar
@<TRIPOS>MOLECULE
*****
 36 40 0 0 0
SMALL
GASTEIGER

@<TRIPOS>ATOM
      1 C          59.5098   88.0529    7.5471 C.3     1  UNL1        0.1909
      2 C          59.2395   86.5829    7.6731 C.3     1  UNL1        0.1783
      3 O          60.2817   85.9958    8.5781 O.3     1  UNL1       -0.3267
      4 C          61.1962   87.1030    9.0115 C.3     1  UNL1        0.2296
      5 O          60.7192   88.3744    8.3743 O.3     1  UNL1       -0.3255
      6 C          61.8949   86.0156    9.7725 C.ar    1  UNL1        0.0409
      7 C          61.6547   85.8570   11.2447 C.ar    1  UNL1        0.0022
      8 C          62.3534   84.7696   12.0058 C.ar    1  UNL1        0.0113
      9 C          63.2924   83.8407   11.2948 C.ar    1  UNL1        0.0585
     10 CL         63.9911   82.7533   12.0559 Cl      1  UNL1       -0.0822
     11 C          63.5327   83.9993    9.8226 C.ar    1  UNL1        0.0226
     12 C          62.8339   85.0867    9.0615 C.ar    1  UNL1        0.0591
     13 CL         63.0742   85.2453    7.5894 Cl      1  UNL1       -0.0824
     14 C          58.7111   89.0299    6.7363 C.3     1  UNL1        0.2374
     15 O          59.1099   90.4754    6.6977 O.3     1  UNL1       -0.4727
     16 C          60.9843   92.1943    2.9853 C.ar    1  UNL1        0.0481
     17 C          59.5746   92.5547    3.3496 C.ar    1  UNL1        0.0176
     18 C          58.9498   91.9818    4.5870 C.ar    1  UNL1        0.0382
     19 C          59.7347   91.0484    5.4603 C.ar    1  UNL1        0.1388
     20 C          61.1444   90.6879    5.0960 C.ar    1  UNL1        0.0382
     21 C          61.7692   91.2608    3.8586 C.ar    1  UNL1        0.0176
     22 C          62.8587   94.2359   -3.3050 C.3     1  UNL1        0.0948
     23 C          63.4836   94.4861   -1.9646 C.2     1  UNL1        0.2262
     24 O          64.7333   95.3092   -1.8616 O.2     1  UNL1       -0.2749
     25 N          62.8588   93.9131   -0.7271 N.am    1  UNL1       -0.2760
     26 C          61.6091   93.0900   -0.8301 C.3     1  UNL1        0.1148
     27 C          60.9843   92.5170    0.4074 C.3     1  UNL1        0.1123
     28 N          61.6092   92.7672    1.7479 N.pl3   1  UNL1       -0.3041
     29 C          62.8589   93.5904    1.8508 C.3     1  UNL1        0.1123
     30 C          63.4837   94.1633    0.6134 C.3     1  UNL1        0.1148
     31 C          62.2568   87.9829    9.6039 C.3     1  UNL1        0.1682
     32 N          61.9734   88.7613   10.8544 N.ar    1  UNL1       -0.3025
     33 C          62.9984   89.3499   11.7778 C.ar    1  UNL1        0.0982
     34 C          62.2737   90.0401   12.8952 C.ar    1  UNL1        0.1193
     35 N          60.8008   89.8780   12.6622 N.ar    1  UNL1       -0.2223
     36 C          60.6152   89.0876   11.4010 C.ar    1  UNL1        0.1788
@<TRIPOS>BOND
     1    22    23    1
     2    23    24    2
     3    23    25   am
     4    25    26    1
     5    26    27    1
     6    27    28    1
     7    28    16    1
     8    16    17   ar
     9    17    18   ar
    10    18    19   ar
    11    19    15    1
    12    15    14    1
    13    14     1    1
    14     1     2    1
    15     2     3    1
    16     3     4    1
    17     4    31    1
    18    31    32    1
    19    32    33   ar
    20    33    34   ar
    21    34    35   ar
    22    35    36   ar
    23     4     6    1
    24     6     7   ar
    25     7     8   ar
    26     8     9   ar
    27     9    10    1
    28     9    11   ar
    29    11    12   ar
    30    12    13    1
    31     4     5    1
    32    19    20   ar
    33    20    21   ar
    34    28    29    1
    35    29    30    1
    36    30    25    1
    37    21    16   ar
    38     5     1    1
    39    36    32   ar
    40    12     6   ar
@<TRIPOS>MOLECULE
*****
 36 40 0 0 0
SMALL
GASTEIGER

@<TRIPOS>ATOM
      1 C          63.2083   86.8552   16.3141 C.3     1  UNL1        0.1909
      2 C          62.6497   85.6463   17.0046 C.3     1  UNL1        0.1783
      3 O          62.6738   84.5045   16.0321 O.3     1  UNL1       -0.3267
      4 C          63.2474   85.0077   14.7406 C.3     1  UNL1        0.2296
      5 O          63.5777   86.4605   14.9149 O.3     1  UNL1       -0.3255
      6 C          63.0273   83.5986   14.2760 C.ar    1  UNL1        0.0409
      7 C          61.7227   82.9123   14.5541 C.ar    1  UNL1        0.0022
      8 C          61.5026   81.5031   14.0895 C.ar    1  UNL1        0.0113
      9 C          62.5870   80.7803   13.3469 C.ar    1  UNL1        0.0585
     10 CL         62.3670   79.3711   12.8823 Cl      1  UNL1       -0.0822
     11 C          63.8916   81.4665   13.0689 C.ar    1  UNL1        0.0226
     12 C          64.1117   82.8756   13.5334 C.ar    1  UNL1        0.0591
     13 CL         65.4162   83.5619   13.2554 Cl      1  UNL1       -0.0824
     14 C          63.3693   88.2192   16.9171 C.3     1  UNL1        0.2374
     15 O          62.6636   89.3955   16.3102 O.3     1  UNL1       -0.4727
     16 C          64.7441   91.9176   13.2182 C.ar    1  UNL1        0.0481
     17 C          65.1435   92.0182   14.6605 C.ar    1  UNL1        0.0176
     18 C          64.4500   91.1775   15.6912 C.ar    1  UNL1        0.0382
     19 C          63.3571   90.2362   15.2795 C.ar    1  UNL1        0.1388
     20 C          62.9577   90.1356   13.8372 C.ar    1  UNL1        0.0382
     21 C          63.6512   90.9763   12.8065 C.ar    1  UNL1        0.0176
     22 C          67.8157   96.7226    9.3806 C.3     1  UNL1        0.0948
     23 C          67.5180   95.2804    9.0954 C.2     1  UNL1        0.2262
     24 O          67.9138   94.6789    7.7796 O.2     1  UNL1       -0.2749
     25 N          66.8245   94.4397   10.1261 N.am    1  UNL1       -0.2760
     26 C          66.4288   95.0412   11.4420 C.3     1  UNL1        0.1148
     27 C          65.7353   94.2005   12.4727 C.3     1  UNL1        0.1123
     28 N          65.4376   92.7583   12.1875 N.pl3   1  UNL1       -0.3041
     29 C          65.8333   92.1568   10.8716 C.3     1  UNL1        0.1123
     30 C          66.5268   92.9975    9.8410 C.3     1  UNL1        0.1148
     31 C          63.7749   85.2163   13.3520 C.3     1  UNL1        0.1682
     32 N          62.8962   85.8242   12.2992 N.ar    1  UNL1       -0.3025
     33 C          62.0002   85.0748   11.3582 C.ar    1  UNL1        0.0982
     34 C          61.3095   86.0756   10.4801 C.ar    1  UNL1        0.1193
     35 N          61.7786   87.4436   10.8783 N.ar    1  UNL1       -0.2223
     36 C          62.7593   87.2882   12.0026 C.ar    1  UNL1        0.1788
@<TRIPOS>BOND
     1    22    23    1
     2    23    24    2
     3    23    25   am
     4    25    26    1
     5    26    27    1
     6    27    28    1
     7    28    16    1
     8    16    17   ar
     9    17    18   ar
    10    18    19   ar
    11    19    15    1
    12    15    14    1
    13    14     1    1
    14     1     2    1
    15     2     3    1
    16     3     4    1
    17     4    31    1
    18    31    32    1
    19    32    33   ar
    20    33    34   ar
    21    34    35   ar
    22    35    36   ar
    23     4     6    1
    24     6     7   ar
    25     7     8   ar
    26     8     9   ar
    27     9    10    1
    28     9    11   ar
    29    11    12   ar
    30    12    13    1
    31     4     5    1
    32    19    20   ar
    33    20    21   ar
    34    28    29    1
    35    29    30    1
    36    30    25    1
    37    21    16   ar
    38     5     1    1
    39    36    32   ar
    40    12     6   ar
@<TRIPOS>MOLECULE
*****
 36 40 0 0 0
SMALL
GASTEIGER

@<TRIPOS>ATOM
      1 C          63.9976   91.6001   10.9410 C.3     1  UNL1        0.1909
      2 C          63.8695   91.3248   12.4099 C.3     1  UNL1        0.1783
      3 O          65.1204   91.8070   13.0828 O.3     1  UNL1       -0.3267
      4 C          66.0217   92.3803   12.0297 C.3     1  UNL1        0.2296
      5 O          65.3278   92.2525   10.7059 O.3     1  UNL1       -0.3255
      6 C          66.9442   92.6393   13.1836 C.ar    1  UNL1        0.0409
      7 C          66.4999   93.5158   14.3170 C.ar    1  UNL1        0.0022
      8 C          67.4225   93.7749   15.4710 C.ar    1  UNL1        0.0113
      9 C          68.7894   93.1575   15.4916 C.ar    1  UNL1        0.0585
     10 CL         69.7120   93.4166   16.6456 Cl      1  UNL1       -0.0822
     11 C          69.2338   92.2810   14.3582 C.ar    1  UNL1        0.0226
     12 C          68.3112   92.0220   13.2043 C.ar    1  UNL1        0.0591
     13 CL         68.7554   91.1456   12.0709 Cl      1  UNL1       -0.0824
     14 C          62.9752   91.2794    9.8913 C.3     1  UNL1        0.2374
     15 O          61.7695   90.4598   10.2444 O.3     1  UNL1       -0.4727
     16 C          62.2530   86.1543   11.4604 C.ar    1  UNL1        0.0481
     17 C          62.8856   87.2404   12.2790 C.ar    1  UNL1        0.0176
     18 C          62.7245   88.6756   11.8736 C.ar    1  UNL1        0.0382
     19 C          61.9307   89.0246   10.6497 C.ar    1  UNL1        0.1388
     20 C          61.2980   87.9385    9.8311 C.ar    1  UNL1        0.0382
     21 C          61.4592   86.5034   10.2365 C.ar    1  UNL1        0.0176
     22 C          62.8683   79.3328   12.0420 C.3     1  UNL1        0.0948
     23 C          62.8975   80.4136   13.0817 C.2     1  UNL1        0.2262
     24 O          63.0879   80.0592   14.5267 O.2     1  UNL1       -0.2749
     25 N          62.7364   81.8487   12.6764 N.am    1  UNL1       -0.2760
     26 C          62.5460   82.2031   11.2314 C.3     1  UNL1        0.1148
     27 C          62.3849   83.6383   10.8260 C.3     1  UNL1        0.1123
     28 N          62.4141   84.7191   11.8657 N.pl3   1  UNL1       -0.3041
     29 C          62.6044   84.3647   13.3107 C.3     1  UNL1        0.1123
     30 C          62.7656   82.9295   13.7161 C.3     1  UNL1        0.1148
     31 C          67.1158   93.0078   11.2177 C.3     1  UNL1        0.1682
     32 N          66.8829   94.3224   10.5340 N.ar    1  UNL1       -0.3025
     33 C          67.3128   94.6808    9.1424 C.ar    1  UNL1        0.0982
     34 C          66.8747   96.0893    8.8702 C.ar    1  UNL1        0.1193
     35 N          66.1740   96.6014   10.0936 N.ar    1  UNL1       -0.2223
     36 C          66.1790   95.5094   11.1218 C.ar    1  UNL1        0.1788
@<TRIPOS>BOND
     1    22    23    1
     2    23    24    2
     3    23    25   am
     4    25    26    1
     5    26    27    1
     6    27    28    1
     7    28    16    1
     8    16    17   ar
     9    17    18   ar
    10    18    19   ar
    11    19    15    1
    12    15    14    1
    13    14     1    1
    14     1     2    1
    15     2     3    1
    16     3     4    1
    17     4    31    1
    18    31    32    1
    19    32    33   ar
    20    33    34   ar
    21    34    35   ar
    22    35    36   ar
    23     4     6    1
    24     6     7   ar
    25     7     8   ar
    26     8     9   ar
    27     9    10    1
    28     9    11   ar
    29    11    12   ar
    30    12    13    1
    31     4     5    1
    32    19    20   ar
    33    20    21   ar
    34    28    29    1
    35    29    30    1
    36    30    25    1
    37    21    16   ar
    38     5     1    1
    39    36    32   ar
    40    12     6   ar
@<TRIPOS>MOLECULE
*****
 36 40 0 0 0
SMALL
GASTEIGER

@<TRIPOS>ATOM
      1 C          64.3714   91.9865   11.0814 C.3     1  UNL1        0.1909
      2 C          65.1848   93.2466   11.0608 C.3     1  UNL1        0.1783
      3 O          66.1336   93.2050   12.2218 O.3     1  UNL1       -0.3267
      4 C          65.9066   91.9191   12.9600 C.3     1  UNL1        0.2296
      5 O          64.8175   91.1660   12.2553 O.3     1  UNL1       -0.3255
      6 C          66.9958   92.4255   13.8583 C.ar    1  UNL1        0.0409
      7 C          66.6520   93.2551   15.0599 C.ar    1  UNL1        0.0022
      8 C          67.7412   93.7615   15.9583 C.ar    1  UNL1        0.0113
      9 C          69.1743   93.4383   15.6552 C.ar    1  UNL1        0.0585
     10 CL         70.2636   93.9447   16.5536 Cl      1  UNL1       -0.0822
     11 C          69.5181   92.6087   14.4536 C.ar    1  UNL1        0.0226
     12 C          68.4289   92.1023   13.5553 C.ar    1  UNL1        0.0591
     13 CL         68.7727   91.2728   12.3538 Cl      1  UNL1       -0.0824
     14 C          63.3000   91.6125   10.1005 C.3     1  UNL1        0.2374
     15 O          62.1012   90.8362   10.5589 O.3     1  UNL1       -0.4727
     16 C          62.5108   86.4820   11.6188 C.ar    1  UNL1        0.0481
     17 C          63.1466   87.5280   12.4858 C.ar    1  UNL1        0.0176
     18 C          63.0101   88.9794   12.1325 C.ar    1  UNL1        0.0382
     19 C          62.2377   89.3848   10.9122 C.ar    1  UNL1        0.1388
     20 C          61.6020   88.3389   10.0452 C.ar    1  UNL1        0.0382
     21 C          61.7385   86.8875   10.3985 C.ar    1  UNL1        0.0176
     22 C          62.7924   79.6243   11.9961 C.3     1  UNL1        0.0948
     23 C          63.0570   80.6764   13.0319 C.2     1  UNL1        0.2262
     24 O          63.4582   80.2772   14.4210 O.2     1  UNL1       -0.2749
     25 N          62.9205   82.1278   12.6786 N.am    1  UNL1       -0.2760
     26 C          62.5193   82.5271   11.2895 C.3     1  UNL1        0.1148
     27 C          62.3828   83.9785   10.9363 C.3     1  UNL1        0.1123
     28 N          62.6474   85.0306   11.9721 N.pl3   1  UNL1       -0.3041
     29 C          63.0486   84.6314   13.3611 C.3     1  UNL1        0.1123
     30 C          63.1851   83.1800   13.7144 C.3     1  UNL1        0.1148
     31 C          65.9073   90.7390   13.8861 C.3     1  UNL1        0.1682
     32 N          64.8355   90.6014   14.9264 N.ar    1  UNL1       -0.3025
     33 C          64.0995   89.3411   15.2726 C.ar    1  UNL1        0.0982
     34 C          63.1207   89.6607   16.3633 C.ar    1  UNL1        0.1193
     35 N          63.2517   91.1185   16.6913 N.ar    1  UNL1       -0.2223
     36 C          64.3116   91.6999   15.8032 C.ar    1  UNL1        0.1788
@<TRIPOS>BOND
     1    22    23    1
     2    23    24    2
     3    23    25   am
     4    25    26    1
     5    26    27    1
     6    27    28    1
     7    28    16    1
     8    16    17   ar
     9    17    18   ar
    10    18    19   ar
    11    19    15    1
    12    15    14    1
    13    14     1    1
    14     1     2    1
    15     2     3    1
    16     3     4    1
    17     4    31    1
    18    31    32    1
    19    32    33   ar
    20    33    34   ar
    21    34    35   ar
    22    35    36   ar
    23     4     6    1
    24     6     7   ar
    25     7     8   ar
    26     8     9   ar
    27     9    10    1
    28     9    11   ar
    29    11    12   ar
    30    12    13    1
    31     4     5    1
    32    19    20   ar
    33    20    21   ar
    34    28    29    1
    35    29    30    1
    36    30    25    1
    37    21    16   ar
    38     5     1    1
    39    36    32   ar
    40    12     6   ar
@<TRIPOS>MOLECULE
*****
 36 40 0 0 0
SMALL
GASTEIGER

@<TRIPOS>ATOM
      1 C          59.6534   91.7748    4.5528 C.3     1  UNL1        0.1909
      2 C          61.0730   91.3409    4.3373 C.3     1  UNL1        0.1783
      3 O          61.6582   92.1927    3.2501 O.3     1  UNL1       -0.3267
      4 C          60.6002   93.1530    2.7936 C.3     1  UNL1        0.2296
      5 O          59.3611   92.8948    3.5987 O.3     1  UNL1       -0.3255
      6 C          61.6644   93.6330    1.8519 C.ar    1  UNL1        0.0409
      7 C          62.3392   94.9511    2.0917 C.ar    1  UNL1        0.0022
      8 C          63.4035   95.4311    1.1500 C.ar    1  UNL1        0.0113
      9 C          63.7931   94.5931   -0.0314 C.ar    1  UNL1        0.0585
     10 CL         64.8575   95.0731   -0.9732 Cl      1  UNL1       -0.0822
     11 C          63.1184   93.2750   -0.2713 C.ar    1  UNL1        0.0226
     12 C          62.0541   92.7950    0.6704 C.ar    1  UNL1        0.0591
     13 CL         61.3794   91.4770    0.4306 Cl      1  UNL1       -0.0824
     14 C          58.6944   91.1912    5.5477 C.3     1  UNL1        0.2374
     15 O          58.6363   89.7063    5.7514 O.3     1  UNL1       -0.4727
     16 C          60.8480   87.8179    9.1854 C.ar    1  UNL1        0.0481
     17 C          60.8401   89.3096    9.0280 C.ar    1  UNL1        0.0176
     18 C          60.1028   89.9390    7.8833 C.ar    1  UNL1        0.0382
     19 C          59.3735   89.0768    6.8960 C.ar    1  UNL1        0.1388
     20 C          59.3815   87.5852    7.0535 C.ar    1  UNL1        0.0382
     21 C          60.1188   86.9557    8.1981 C.ar    1  UNL1        0.0176
     22 C          64.5301   86.1621   14.7487 C.3     1  UNL1        0.0948
     23 C          63.7970   85.3002   13.7641 C.2     1  UNL1        0.2262
     24 O          63.8012   83.8088   13.9241 O.2     1  UNL1       -0.2749
     25 N          63.0598   85.9296   12.6194 N.am    1  UNL1       -0.2760
     26 C          63.0556   87.4210   12.4594 C.3     1  UNL1        0.1148
     27 C          62.3184   88.0505   11.3147 C.3     1  UNL1        0.1123
     28 N          61.5853   87.1885   10.3301 N.pl3   1  UNL1       -0.3041
     29 C          61.5894   85.6971   10.4901 C.3     1  UNL1        0.1123
     30 C          62.3267   85.0677   11.6348 C.3     1  UNL1        0.1148
     31 C          59.7646   94.2137    2.1402 C.3     1  UNL1        0.1682
     32 N          59.1991   93.9850    0.7699 N.ar    1  UNL1       -0.3025
     33 C          58.3784   92.8052    0.3405 C.ar    1  UNL1        0.0982
     34 C          58.0271   92.9869   -1.1064 C.ar    1  UNL1        0.1193
     35 N          58.6307   94.2790   -1.5712 N.ar    1  UNL1       -0.2223
     36 C          59.3550   94.8959   -0.4116 C.ar    1  UNL1        0.1788
@<TRIPOS>BOND
     1    22    23    1
     2    23    24    2
     3    23    25   am
     4    25    26    1
     5    26    27    1
     6    27    28    1
     7    28    16    1
     8    16    17   ar
     9    17    18   ar
    10    18    19   ar
    11    19    15    1
    12    15    14    1
    13    14     1    1
    14     1     2    1
    15     2     3    1
    16     3     4    1
    17     4    31    1
    18    31    32    1
    19    32    33   ar
    20    33    34   ar
    21    34    35   ar
    22    35    36   ar
    23     4     6    1
    24     6     7   ar
    25     7     8   ar
    26     8     9   ar
    27     9    10    1
    28     9    11   ar
    29    11    12   ar
    30    12    13    1
    31     4     5    1
    32    19    20   ar
    33    20    21   ar
    34    28    29    1
    35    29    30    1
    36    30    25    1
    37    21    16   ar
    38     5     1    1
    39    36    32   ar
    40    12     6   ar
