@<TRIPOS>MOLECULE
*****
 39 45 0 0 0
SMALL
GASTEIGER

@<TRIPOS>ATOM
      1 C          62.1302   92.8575    1.1262 C.2     1  UNL1       -0.0378
      2 C          62.9582   91.9935    2.0306 C.2     1  UNL1       -0.0080
      3 C          62.3627   91.4404    3.2914 C.2     1  UNL1        0.0022
      4 C          60.9393   91.7513    3.6477 C.2     1  UNL1        0.0350
      5 C          60.0865   91.3514    4.8152 C.2     1  UNL1        0.1040
      6 N          58.7315   91.9681    4.6323 N.2     1  UNL1       -0.1483
      7 N          58.7467   92.7493    3.3519 N.2     1  UNL1       -0.1520
      8 C          60.1112   92.6153    2.7433 C.2     1  UNL1        0.0860
      9 C          60.7066   93.1683    1.4826 C.3     1  UNL1        0.0697
     10 C          65.0486   95.6060   -4.4182 C.ar    1  UNL1        0.1385
     11 C          65.9983   96.6388   -3.8877 C.ar    1  UNL1        0.0382
     12 C          66.1207   96.8556   -2.4085 C.ar    1  UNL1        0.0175
     13 C          65.2935   96.0396   -1.4599 C.ar    1  UNL1        0.0469
     14 C          64.3438   95.0068   -1.9904 C.ar    1  UNL1        0.0022
     15 C          64.2214   94.7899   -3.4696 C.ar    1  UNL1        0.0343
     16 C          63.6634   94.3587   -0.8213 C.3     1  UNL1        0.0928
     17 C          62.8191   93.4204   -1.6316 C.3     1  UNL1        0.0179
     18 C          62.7256   93.4105   -0.1346 C.3     1  UNL1        0.0315
     19 C          64.1926   94.9909    0.4319 C.2     1  UNL1        0.2293
     20 O          63.7857   94.6450    1.8336 O.2     1  UNL1       -0.2744
     21 N          65.2000   96.0298    0.0372 N.am    1  UNL1       -0.2839
     22 H          65.7103   96.6043    0.6527 H       1  UNL1        0.1549
     23 C          63.6809   94.7747   -6.4648 C.3     1  UNL1        0.2525
     24 O          64.9261   95.3891   -5.8974 O.3     1  UNL1       -0.4714
     25 C          60.5139   90.4865    5.9638 C.2     1  UNL1        0.0209
     26 C          59.5012   89.6550    6.6939 C.2     1  UNL1        0.0016
     27 C          59.9285   88.7901    7.8426 C.ar    1  UNL1        0.0000
     28 C          60.7437   89.3738    8.9582 C.ar    1  UNL1       -0.0003
     29 C          61.1710   88.5090   10.1069 C.ar    1  UNL1       -0.0029
     30 C          60.7830   87.0604   10.1399 C.ar    1  UNL1       -0.0061
     31 C          59.9678   86.4767    9.0243 C.ar    1  UNL1       -0.0029
     32 C          59.5405   87.3415    7.8756 C.ar    1  UNL1       -0.0003
     33 C          61.2103   86.1956   11.2886 C.3     1  UNL1        0.0991
     34 N          62.2900   85.1724   11.0960 N.3     1  UNL1       -0.2690
     35 C          62.8031   84.8736    9.7185 C.3     1  UNL1        0.0724
     36 C          63.8829   83.8504    9.5258 C.3     1  UNL1        0.0174
     37 C          64.4496   83.1259   10.7108 C.3     1  UNL1        0.0029
     38 C          63.9366   83.4247   12.0883 C.3     1  UNL1        0.0174
     39 C          62.8568   84.4480   12.2809 C.3     1  UNL1        0.0724
@<TRIPOS>BOND
     1    23    24    1
     2    24    10    1
     3    10    11   ar
     4    11    12   ar
     5    12    13   ar
     6    13    14   ar
     7    14    15   ar
     8    14    16    1
     9    16    17    1
    10    17    18    1
    11    18     1    1
    12     1     2    2
    13     2     3    1
    14     3     4    2
    15     4     5    1
    16     5    25    1
    17    25    26    2
    18    26    27    1
    19    27    28   ar
    20    28    29   ar
    21    29    30   ar
    22    30    33    1
    23    33    34    1
    24    34    35    1
    25    35    36    1
    26    36    37    1
    27    37    38    1
    28    38    39    1
    29    30    31   ar
    30    31    32   ar
    31     5     6    2
    32     6     7    1
    33     7     8    2
    34     8     9    1
    35    16    19    1
    36    19    20    2
    37    19    21   am
    38    15    10   ar
    39    18    16    1
    40     9     1    1
    41    21    13    1
    42     8     4    1
    43    32    27   ar
    44    39    34    1
    45    21    22    1
@<TRIPOS>MOLECULE
*****
 39 45 0 0 0
SMALL
GASTEIGER

@<TRIPOS>ATOM
      1 C          61.5241   92.6334    2.5101 C.2     1  UNL1       -0.0378
      2 C          62.2587   91.6044    3.3172 C.2     1  UNL1       -0.0080
      3 C          61.5539   90.8741    4.4217 C.2     1  UNL1        0.0022
      4 C          60.1143   91.1728    4.7191 C.2     1  UNL1        0.0350
      5 C          59.1639   90.6179    5.7383 C.2     1  UNL1        0.1040
      6 N          57.8418   91.3039    5.5612 N.2     1  UNL1       -0.1483
      7 N          57.9751   92.2829    4.4325 N.2     1  UNL1       -0.1520
      8 C          59.3796   92.2018    3.9121 C.2     1  UNL1        0.0860
      9 C          60.0845   92.9321    2.8076 C.3     1  UNL1        0.0697
     10 C          64.5097   95.8052   -2.7659 C.ar    1  UNL1        0.1385
     11 C          63.7576   95.3396   -3.9773 C.ar    1  UNL1        0.0382
     12 C          62.6191   94.3744   -3.8280 C.ar    1  UNL1        0.0175
     13 C          62.2327   93.8750   -2.4674 C.ar    1  UNL1        0.0469
     14 C          62.9848   94.3407   -1.2561 C.ar    1  UNL1        0.0022
     15 C          64.1234   95.3058   -1.4052 C.ar    1  UNL1        0.0343
     16 C          62.3799   93.6804   -0.0527 C.3     1  UNL1        0.0928
     17 C          63.2986   94.3117    0.9510 C.3     1  UNL1        0.0179
     18 C          62.2289   93.3636    1.4057 C.3     1  UNL1        0.0315
     19 C          61.2539   92.8066   -0.5204 C.2     1  UNL1        0.2293
     20 O          60.3735   91.9611    0.3513 O.2     1  UNL1       -0.2744
     21 N          61.1629   92.9269   -2.0128 N.am    1  UNL1       -0.2839
     22 H          60.5149   92.4647   -2.5921 H       1  UNL1        0.1549
     23 C          66.3945   96.8551   -4.2136 C.3     1  UNL1        0.2525
     24 O          65.6483   96.7704   -2.9151 O.3     1  UNL1       -0.4714
     25 C          59.4801   89.5623    6.7560 C.2     1  UNL1        0.0209
     26 C          60.4273   89.8633    7.8794 C.2     1  UNL1        0.0016
     27 C          60.7435   88.8077    8.8972 C.ar    1  UNL1        0.0000
     28 C          61.6391   89.1285   10.0569 C.ar    1  UNL1       -0.0003
     29 C          61.9554   88.0730   11.0747 C.ar    1  UNL1       -0.0029
     30 C          61.3761   86.6967   10.9326 C.ar    1  UNL1       -0.0061
     31 C          60.4805   86.3759    9.7728 C.ar    1  UNL1       -0.0029
     32 C          60.1642   87.4314    8.7551 C.ar    1  UNL1       -0.0003
     33 C          61.6924   85.6412   11.9504 C.3     1  UNL1        0.0991
     34 N          62.5718   84.4834   11.5817 N.3     1  UNL1       -0.2690
     35 C          63.2237   84.4368   10.2316 C.3     1  UNL1        0.0724
     36 C          64.1032   83.2789    9.8628 C.3     1  UNL1        0.0174
     37 C          64.3307   82.1676   10.8443 C.3     1  UNL1        0.0029
     38 C          63.6788   82.2142   12.1944 C.3     1  UNL1        0.0174
     39 C          62.7994   83.3720   12.5631 C.3     1  UNL1        0.0724
@<TRIPOS>BOND
     1    23    24    1
     2    24    10    1
     3    10    11   ar
     4    11    12   ar
     5    12    13   ar
     6    13    14   ar
     7    14    15   ar
     8    14    16    1
     9    16    17    1
    10    17    18    1
    11    18     1    1
    12     1     2    2
    13     2     3    1
    14     3     4    2
    15     4     5    1
    16     5    25    1
    17    25    26    2
    18    26    27    1
    19    27    28   ar
    20    28    29   ar
    21    29    30   ar
    22    30    33    1
    23    33    34    1
    24    34    35    1
    25    35    36    1
    26    36    37    1
    27    37    38    1
    28    38    39    1
    29    30    31   ar
    30    31    32   ar
    31     5     6    2
    32     6     7    1
    33     7     8    2
    34     8     9    1
    35    16    19    1
    36    19    20    2
    37    19    21   am
    38    15    10   ar
    39    18    16    1
    40     9     1    1
    41    21    13    1
    42     8     4    1
    43    32    27   ar
    44    39    34    1
    45    21    22    1
@<TRIPOS>MOLECULE
*****
 39 45 0 0 0
SMALL
GASTEIGER

@<TRIPOS>ATOM
      1 C          61.6443   92.6206    1.6292 C.2     1  UNL1       -0.0378
      2 C          62.5533   91.7850    2.4809 C.2     1  UNL1       -0.0080
      3 C          62.0502   91.2047    3.7695 C.2     1  UNL1        0.0022
      4 C          60.6382   91.4601    4.2063 C.2     1  UNL1        0.0350
      5 C          59.8675   91.0234    5.4168 C.2     1  UNL1        0.1040
      6 N          58.4821   91.5892    5.3133 N.2     1  UNL1       -0.1483
      7 N          58.3966   92.3755    4.0388 N.2     1  UNL1       -0.1520
      8 C          59.7291   92.2957    3.3546 C.2     1  UNL1        0.0860
      9 C          60.2321   92.8759    2.0661 C.3     1  UNL1        0.0697
     10 C          64.1745   95.4700   -4.0533 C.ar    1  UNL1        0.1385
     11 C          65.2357   96.4165   -3.5758 C.ar    1  UNL1        0.0382
     12 C          65.5163   96.5501   -2.1083 C.ar    1  UNL1        0.0175
     13 C          64.7356   95.7373   -1.1184 C.ar    1  UNL1        0.0469
     14 C          63.6744   94.7909   -1.5959 C.ar    1  UNL1        0.0022
     15 C          63.3937   94.6572   -3.0633 C.ar    1  UNL1        0.0343
     16 C          63.0719   94.1255   -0.3941 C.3     1  UNL1        0.0928
     17 C          62.0939   93.2813   -1.1561 C.3     1  UNL1        0.0179
     18 C          62.1473   93.2009    0.3407 C.3     1  UNL1        0.0315
     19 C          63.7608   94.6608    0.8261 C.2     1  UNL1        0.2293
     20 O          63.4721   94.2687    2.2449 O.2     1  UNL1       -0.2744
     21 N          64.7890   95.6569    0.3785 N.am    1  UNL1       -0.2839
     22 H          65.3929   96.1682    0.9643 H       1  UNL1        0.1549
     23 C          64.9819   94.8980   -6.4555 C.3     1  UNL1        0.2525
     24 O          63.8938   95.3363   -5.5207 O.3     1  UNL1       -0.4714
     25 C          60.3904   90.1708    6.5346 C.2     1  UNL1        0.0209
     26 C          59.6011   88.9856    7.0062 C.2     1  UNL1        0.0016
     27 C          60.1240   88.1329    8.1241 C.ar    1  UNL1        0.0000
     28 C          60.5884   86.7339    7.8460 C.ar    1  UNL1       -0.0003
     29 C          61.1112   85.8811    8.9637 C.ar    1  UNL1       -0.0029
     30 C          61.1697   86.4273   10.3595 C.ar    1  UNL1       -0.0061
     31 C          60.7053   87.8262   10.6376 C.ar    1  UNL1       -0.0029
     32 C          60.1824   88.6791    9.5198 C.ar    1  UNL1       -0.0003
     33 C          61.6925   85.5745   11.4772 C.3     1  UNL1        0.0991
     34 N          62.6344   86.1579   12.4884 N.3     1  UNL1       -0.2690
     35 C          63.2599   85.2754   13.5276 C.3     1  UNL1        0.0724
     36 C          64.2018   85.8587   14.5388 C.3     1  UNL1        0.0174
     37 C          64.5182   87.3248   14.5107 C.3     1  UNL1        0.0029
     38 C          63.8927   88.2073   13.4716 C.3     1  UNL1        0.0174
     39 C          62.9508   87.6239   12.4604 C.3     1  UNL1        0.0724
@<TRIPOS>BOND
     1    23    24    1
     2    24    10    1
     3    10    11   ar
     4    11    12   ar
     5    12    13   ar
     6    13    14   ar
     7    14    15   ar
     8    14    16    1
     9    16    17    1
    10    17    18    1
    11    18     1    1
    12     1     2    2
    13     2     3    1
    14     3     4    2
    15     4     5    1
    16     5    25    1
    17    25    26    2
    18    26    27    1
    19    27    28   ar
    20    28    29   ar
    21    29    30   ar
    22    30    33    1
    23    33    34    1
    24    34    35    1
    25    35    36    1
    26    36    37    1
    27    37    38    1
    28    38    39    1
    29    30    31   ar
    30    31    32   ar
    31     5     6    2
    32     6     7    1
    33     7     8    2
    34     8     9    1
    35    16    19    1
    36    19    20    2
    37    19    21   am
    38    15    10   ar
    39    18    16    1
    40     9     1    1
    41    21    13    1
    42     8     4    1
    43    32    27   ar
    44    39    34    1
    45    21    22    1
@<TRIPOS>MOLECULE
*****
 39 45 0 0 0
SMALL
GASTEIGER

@<TRIPOS>ATOM
      1 C          61.7119   92.9363    1.6861 C.2     1  UNL1       -0.0378
      2 C          62.6238   92.0970    2.5310 C.2     1  UNL1       -0.0080
      3 C          62.0961   91.4235    3.7632 C.2     1  UNL1        0.0022
      4 C          60.6565   91.5895    4.1503 C.2     1  UNL1        0.0350
      5 C          59.8580   91.0515    5.3005 C.2     1  UNL1        0.1040
      6 N          58.4526   91.5583    5.1665 N.2     1  UNL1       -0.1483
      7 N          58.3825   92.4095    3.9335 N.2     1  UNL1       -0.1520
      8 C          59.7446   92.4288    3.3054 C.2     1  UNL1        0.0860
      9 C          60.2722   93.1022    2.0733 C.3     1  UNL1        0.0697
     10 C          63.8520   95.8444   -4.1255 C.ar    1  UNL1        0.1385
     11 C          62.9087   95.3477   -5.1806 C.ar    1  UNL1        0.0382
     12 C          61.7961   94.4118   -4.8115 C.ar    1  UNL1        0.0175
     13 C          61.6270   93.9725   -3.3873 C.ar    1  UNL1        0.0469
     14 C          62.5704   94.4691   -2.3321 C.ar    1  UNL1        0.0022
     15 C          63.6830   95.4051   -2.7012 C.ar    1  UNL1        0.0343
     16 C          62.1582   93.8674   -1.0214 C.3     1  UNL1        0.0928
     17 C          63.2348   94.5183   -0.2046 C.3     1  UNL1        0.0179
     18 C          62.2396   93.6097    0.4540 C.3     1  UNL1        0.0315
     19 C          60.9600   92.9989   -1.2665 C.2     1  UNL1        0.2293
     20 O          60.2200   92.2049   -0.2311 O.2     1  UNL1       -0.2744
     21 N          60.6317   93.0638   -2.7287 N.am    1  UNL1       -0.2839
     22 H          59.8927   92.5928   -3.1773 H       1  UNL1        0.1549
     23 C          65.6552   96.6394   -5.8186 C.3     1  UNL1        0.2525
     24 O          64.9646   96.7804   -4.4946 O.3     1  UNL1       -0.4714
     25 C          60.3744   90.1627    6.3930 C.2     1  UNL1        0.0209
     26 C          59.4791   89.1240    7.0009 C.2     1  UNL1        0.0016
     27 C          59.9954   88.2351    8.0934 C.ar    1  UNL1        0.0000
     28 C          60.2370   86.7793    7.8244 C.ar    1  UNL1       -0.0003
     29 C          60.7533   85.8904    8.9168 C.ar    1  UNL1       -0.0029
     30 C          61.0279   86.4574   10.2781 C.ar    1  UNL1       -0.0061
     31 C          60.7863   87.9131   10.5470 C.ar    1  UNL1       -0.0029
     32 C          60.2700   88.8021    9.4546 C.ar    1  UNL1       -0.0003
     33 C          61.5442   85.5684   11.3705 C.3     1  UNL1        0.0991
     34 N          62.4888   86.1155   12.3991 N.3     1  UNL1       -0.2690
     35 C          62.8870   87.5612   12.3582 C.3     1  UNL1        0.0724
     36 C          63.8317   88.1084   13.3869 C.3     1  UNL1        0.0174
     37 C          64.3781   87.2099   14.4566 C.3     1  UNL1        0.0029
     38 C          63.9799   85.7643   14.4975 C.3     1  UNL1        0.0174
     39 C          63.0353   85.2171   13.4688 C.3     1  UNL1        0.0724
@<TRIPOS>BOND
     1    23    24    1
     2    24    10    1
     3    10    11   ar
     4    11    12   ar
     5    12    13   ar
     6    13    14   ar
     7    14    15   ar
     8    14    16    1
     9    16    17    1
    10    17    18    1
    11    18     1    1
    12     1     2    2
    13     2     3    1
    14     3     4    2
    15     4     5    1
    16     5    25    1
    17    25    26    2
    18    26    27    1
    19    27    28   ar
    20    28    29   ar
    21    29    30   ar
    22    30    33    1
    23    33    34    1
    24    34    35    1
    25    35    36    1
    26    36    37    1
    27    37    38    1
    28    38    39    1
    29    30    31   ar
    30    31    32   ar
    31     5     6    2
    32     6     7    1
    33     7     8    2
    34     8     9    1
    35    16    19    1
    36    19    20    2
    37    19    21   am
    38    15    10   ar
    39    18    16    1
    40     9     1    1
    41    21    13    1
    42     8     4    1
    43    32    27   ar
    44    39    34    1
    45    21    22    1
