@<TRIPOS>MOLECULE
*****
 51 55 0 0 0
SMALL
GASTEIGER

@<TRIPOS>ATOM
      1 C          61.1097   88.6754    9.4963 C.3     1  UNL1        0.0964
      2 C          60.3257   89.8694    9.0385 C.3     1  UNL1        0.0780
      3 N          59.3917   89.7507    7.8708 N.3     1  UNL1       -0.2970
      4 C          59.2418   88.4379    7.1608 C.3     1  UNL1        0.0689
      5 C          60.0258   87.2438    7.6186 C.3     1  UNL1        0.0220
      6 C          60.9598   87.3625    8.7863 C.3     1  UNL1        0.0337
      7 H          59.7031   90.4280    7.1746 H       1  UNL1        0.1233
      8 C          61.7438   86.1685    9.2441 C.ar    1  UNL1       -0.0217
      9 C          61.5599   85.6390   10.6354 C.ar    1  UNL1       -0.0012
     10 C          62.3439   84.4450   11.0932 C.ar    1  UNL1        0.0366
     11 C          63.3118   83.7804   10.1597 C.ar    1  UNL1        0.1387
     12 C          63.4957   84.3099    8.7684 C.ar    1  UNL1        0.0366
     13 C          62.7117   85.5040    8.3105 C.ar    1  UNL1       -0.0012
     14 O          64.0958   82.5864   10.6174 O.3     1  UNL1       -0.4714
     15 C          63.4907   81.6208   11.5929 C.3     1  UNL1        0.2525
     16 C          63.7883   81.7487   13.0575 C.3     1  UNL1        0.2525
     17 O          64.6190   82.8936   13.5568 O.3     1  UNL1       -0.4697
     18 C          64.0509   83.8492   14.5639 C.ar    1  UNL1        0.1596
     19 C          62.6724   83.6288   15.1125 C.ar    1  UNL1        0.0921
     20 CL         61.8619   82.4529   14.6542 Cl      1  UNL1       -0.0791
     21 C          62.1044   84.5845   16.1196 C.ar    1  UNL1        0.0103
     22 C          62.9149   85.7605   16.5780 C.ar    1  UNL1       -0.0200
     23 C          62.3469   86.7161   17.5850 C.3     1  UNL1        0.0311
     24 C          64.2935   85.9808   16.0293 C.ar    1  UNL1        0.0103
     25 C          64.8615   85.0252   15.0222 C.ar    1  UNL1        0.0921
     26 CL         66.2400   85.2455   14.4735 Cl      1  UNL1       -0.0791
     27 N          61.5383   89.3082   11.9794 N.am    1  UNL1       -0.2770
     28 C          62.0437   88.7942   10.6640 C.2     1  UNL1        0.2270
     29 O          63.4832   88.3989   10.5163 O.2     1  UNL1       -0.2748
     30 C          60.0989   89.7034   12.1270 C.3     1  UNL1        0.0758
     31 C          58.9871   90.6785   11.8756 C.3     1  UNL1        0.0215
     32 C          58.7175   89.4130   12.6342 C.3     1  UNL1        0.0215
     33 C          62.4723   89.4269   13.1471 C.3     1  UNL1        0.1201
     34 C          65.2699   91.9170   14.4595 C.ar    1  UNL1       -0.0194
     35 C          64.2219   90.8440   14.4435 C.ar    1  UNL1       -0.0067
     36 C          63.5203   90.4999   13.1632 C.ar    1  UNL1        0.0004
     37 C          63.8667   91.2290   11.8988 C.ar    1  UNL1        0.0343
     38 C          64.9147   92.3020   11.9148 C.ar    1  UNL1        0.1381
     39 C          65.6163   92.6460   13.1952 C.ar    1  UNL1        0.0326
     40 O          65.2612   93.0310   10.6505 O.3     1  UNL1       -0.4730
     41 C          66.6406   92.9163   10.0725 C.3     1  UNL1        0.2318
     42 C          67.3328   94.1343    9.5364 C.3     1  UNL1        0.1286
     43 C          66.3219   95.0086   10.2175 C.3     1  UNL1        0.0332
     44 C          68.3436   93.2600    8.8554 C.3     1  UNL1        0.0332
     45 O          68.0250   95.3523    9.0004 O.3     1  UNL1       -0.3831
     46 H          67.5579   96.1478    9.3001 H       1  UNL1        0.2104
     47 C          65.9716   92.2611   15.7399 C.3     1  UNL1        0.0290
     48 C          67.2501   93.0450   15.7074 C.3     1  UNL1        0.0367
     49 C          68.5523   92.3456   15.4524 C.3     1  UNL1        0.1426
     50 C          68.8028   91.6529   12.9610 C.3     1  UNL1        0.1741
     51 O          69.2358   92.4934   14.1255 O.3     1  UNL1       -0.3511
@<TRIPOS>BOND
     1    50    51    1
     2    51    49    1
     3    49    48    1
     4    48    47    1
     5    47    34    1
     6    34    35   ar
     7    35    36   ar
     8    36    33    1
     9    33    27    1
    10    27    28   am
    11    28    29    2
    12     1    28    1
    13     1     2    1
    14     2     3    1
    15     3     4    1
    16     4     5    1
    17     5     6    1
    18     6     8    1
    19     8     9   ar
    20     9    10   ar
    21    10    11   ar
    22    11    14    1
    23    14    15    1
    24    15    16    1
    25    16    17    1
    26    17    18    1
    27    18    19   ar
    28    19    20    1
    29    19    21   ar
    30    21    22   ar
    31    22    23    1
    32    22    24   ar
    33    24    25   ar
    34    25    26    1
    35    11    12   ar
    36    12    13   ar
    37    27    30    1
    38    30    31    1
    39    31    32    1
    40    36    37   ar
    41    37    38   ar
    42    38    40    1
    43    40    41    1
    44    41    42    1
    45    42    43    1
    46    42    44    1
    47    42    45    1
    48    38    39   ar
    49    39    34   ar
    50     6     1    1
    51    13     8   ar
    52    32    30    1
    53    25    18   ar
    54     3     7    1
    55    45    46    1
@<TRIPOS>MOLECULE
*****
 51 55 0 0 0
SMALL
GASTEIGER

@<TRIPOS>ATOM
      1 C          61.1012   88.6962    9.3247 C.3     1  UNL1        0.0964
      2 C          60.2959   89.8733    8.8601 C.3     1  UNL1        0.0780
      3 N          59.2728   89.7015    7.7767 N.3     1  UNL1       -0.2970
      4 C          59.0550   88.3526    7.1580 C.3     1  UNL1        0.0689
      5 C          59.8603   87.1754    7.6226 C.3     1  UNL1        0.0220
      6 C          60.8834   87.3472    8.7060 C.3     1  UNL1        0.0337
      7 H          59.5359   90.3333    7.0204 H       1  UNL1        0.1233
      8 C          61.6887   86.1701    9.1706 C.ar    1  UNL1       -0.0217
      9 C          61.5407   85.6680   10.5764 C.ar    1  UNL1       -0.0012
     10 C          62.3460   84.4909   11.0410 C.ar    1  UNL1        0.0366
     11 C          63.2992   83.8158   10.0999 C.ar    1  UNL1        0.1387
     12 C          63.4472   84.3179    8.6942 C.ar    1  UNL1        0.0366
     13 C          62.6419   85.4951    8.2295 C.ar    1  UNL1       -0.0012
     14 O          64.1045   82.6388   10.5646 O.3     1  UNL1       -0.4714
     15 C          63.5012   81.6439   11.5114 C.3     1  UNL1        0.2525
     16 C          63.7867   81.7385   12.9809 C.3     1  UNL1        0.2525
     17 O          64.6243   82.8641   13.5112 O.3     1  UNL1       -0.4697
     18 C          64.0528   83.8119   14.5237 C.ar    1  UNL1        0.1596
     19 C          62.6729   83.5866   15.0668 C.ar    1  UNL1        0.0921
     20 CL         61.8644   82.4135   14.5975 Cl      1  UNL1       -0.0791
     21 C          62.1013   84.5344   16.0793 C.ar    1  UNL1        0.0103
     22 C          62.9097   85.7075   16.5486 C.ar    1  UNL1       -0.0200
     23 C          62.3383   86.6553   17.5610 C.3     1  UNL1        0.0311
     24 C          64.2897   85.9328   16.0054 C.ar    1  UNL1        0.0103
     25 C          64.8612   84.9850   14.9930 C.ar    1  UNL1        0.0921
     26 CL         66.2412   85.2103   14.4498 Cl      1  UNL1       -0.0791
     27 N          61.7079   89.3639   11.7611 N.am    1  UNL1       -0.2770
     28 C          62.1243   88.8680   10.4081 C.2     1  UNL1        0.2270
     29 O          63.5639   88.5440   10.1384 O.2     1  UNL1       -0.2748
     30 C          60.2684   89.6879   12.0308 C.3     1  UNL1        0.0758
     31 C          59.0987   90.6172   11.8957 C.3     1  UNL1        0.0215
     32 C          58.9448   89.3199   12.6328 C.3     1  UNL1        0.0215
     33 C          62.7311   89.5357   12.8445 C.3     1  UNL1        0.1201
     34 C          64.9261   92.5497   11.4852 C.ar    1  UNL1       -0.0194
     35 C          63.9944   91.3744   11.5129 C.ar    1  UNL1       -0.0067
     36 C          63.6627   90.7110   12.8167 C.ar    1  UNL1        0.0004
     37 C          64.2626   91.2228   14.0927 C.ar    1  UNL1        0.0343
     38 C          65.1943   92.3981   14.0649 C.ar    1  UNL1        0.1381
     39 C          65.5260   93.0615   12.7612 C.ar    1  UNL1        0.0326
     40 O          65.7942   92.9099   15.3409 O.3     1  UNL1       -0.4730
     41 C          67.0770   92.3257   15.8539 C.3     1  UNL1        0.2318
     42 C          68.3435   92.4903   15.0673 C.3     1  UNL1        0.1286
     43 C          68.6497   93.7489   15.8238 C.3     1  UNL1        0.0332
     44 C          68.0373   91.2318   14.3108 C.3     1  UNL1        0.0332
     45 O          69.6101   92.6550   14.2807 O.3     1  UNL1       -0.3831
     46 H          70.0698   93.4578   14.5724 H       1  UNL1        0.2104
     47 C          65.2579   93.2131   10.1814 C.3     1  UNL1        0.0290
     48 C          66.2618   94.3270   10.1408 C.3     1  UNL1        0.0367
     49 C          67.4190   94.2593    9.1887 C.3     1  UNL1        0.1426
     50 C          68.9833   92.2144    8.8402 C.3     1  UNL1        0.1741
     51 O          68.6510   93.4882    9.5593 O.3     1  UNL1       -0.3511
@<TRIPOS>BOND
     1    50    51    1
     2    51    49    1
     3    49    48    1
     4    48    47    1
     5    47    34    1
     6    34    35   ar
     7    35    36   ar
     8    36    33    1
     9    33    27    1
    10    27    28   am
    11    28    29    2
    12     1    28    1
    13     1     2    1
    14     2     3    1
    15     3     4    1
    16     4     5    1
    17     5     6    1
    18     6     8    1
    19     8     9   ar
    20     9    10   ar
    21    10    11   ar
    22    11    14    1
    23    14    15    1
    24    15    16    1
    25    16    17    1
    26    17    18    1
    27    18    19   ar
    28    19    20    1
    29    19    21   ar
    30    21    22   ar
    31    22    23    1
    32    22    24   ar
    33    24    25   ar
    34    25    26    1
    35    11    12   ar
    36    12    13   ar
    37    27    30    1
    38    30    31    1
    39    31    32    1
    40    36    37   ar
    41    37    38   ar
    42    38    40    1
    43    40    41    1
    44    41    42    1
    45    42    43    1
    46    42    44    1
    47    42    45    1
    48    38    39   ar
    49    39    34   ar
    50     6     1    1
    51    13     8   ar
    52    32    30    1
    53    25    18   ar
    54     3     7    1
    55    45    46    1
@<TRIPOS>MOLECULE
*****
 51 55 0 0 0
SMALL
GASTEIGER

@<TRIPOS>ATOM
      1 C          60.6418   86.8514    9.1209 C.3     1  UNL1        0.0964
      2 C          59.7602   86.0395    8.2189 C.3     1  UNL1        0.0780
      3 N          58.7346   86.7200    7.3615 N.3     1  UNL1       -0.2970
      4 C          58.5905   88.2124    7.4062 C.3     1  UNL1        0.0689
      5 C          59.4721   89.0244    8.3082 C.3     1  UNL1        0.0220
      6 C          60.4978   88.3439    9.1656 C.3     1  UNL1        0.0337
      7 H          57.8286   86.3289    7.6197 H       1  UNL1        0.1233
      8 C          61.3793   89.1557   10.0676 C.ar    1  UNL1       -0.0217
      9 C          60.9419   89.4581   11.4702 C.ar    1  UNL1       -0.0012
     10 C          61.8235   90.2700   12.3722 C.ar    1  UNL1        0.0366
     11 C          63.1425   90.7795   11.8716 C.ar    1  UNL1        0.1387
     12 C          63.5799   90.4772   10.4691 C.ar    1  UNL1        0.0366
     13 C          62.6984   89.6653    9.5670 C.ar    1  UNL1       -0.0012
     14 O          64.0241   91.5914   12.7736 O.3     1  UNL1       -0.4714
     15 C          65.3160   92.1502   12.2552 C.3     1  UNL1        0.2525
     16 C          65.9077   93.3775   12.8826 C.3     1  UNL1        0.2525
     17 O          67.0379   94.0950   12.2061 O.3     1  UNL1       -0.4697
     18 C          66.8177   94.7586   10.8789 C.ar    1  UNL1        0.1596
     19 C          66.2293   96.1369   10.8180 C.ar    1  UNL1        0.0921
     20 CL         65.8610   96.8519   12.0842 Cl      1  UNL1       -0.0791
     21 C          66.0090   96.8005    9.4908 C.ar    1  UNL1        0.0103
     22 C          66.3773   96.0855    8.2246 C.ar    1  UNL1       -0.0200
     23 C          66.1571   96.7490    6.8975 C.3     1  UNL1        0.0311
     24 C          66.9657   94.7071    8.2856 C.ar    1  UNL1        0.0103
     25 C          67.1859   94.0436    9.6127 C.ar    1  UNL1        0.0921
     26 CL         67.7743   92.6652    9.6737 Cl      1  UNL1       -0.0791
     27 N          62.6382   85.2067    9.3637 N.am    1  UNL1       -0.2770
     28 C          61.6674   86.1709    9.9782 C.2     1  UNL1        0.2270
     29 O          61.7221   86.4547   11.4502 O.2     1  UNL1       -0.2748
     30 C          62.5835   84.9230    7.8918 C.3     1  UNL1        0.0758
     31 C          61.8219   84.4588    6.6858 C.3     1  UNL1        0.0215
     32 C          63.2502   84.8958    6.5484 C.3     1  UNL1        0.0215
     33 C          63.6639   84.5262   10.2210 C.3     1  UNL1        0.1201
     34 C          62.5248   81.9094   12.9788 C.ar    1  UNL1       -0.0194
     35 C          62.9209   82.4901   11.6536 C.ar    1  UNL1       -0.0067
     36 C          63.2678   83.9455   11.5461 C.ar    1  UNL1        0.0004
     37 C          63.2186   84.8202   12.7638 C.ar    1  UNL1        0.0343
     38 C          62.8225   84.2395   14.0888 C.ar    1  UNL1        0.1381
     39 C          62.4756   82.7841   14.1963 C.ar    1  UNL1        0.0326
     40 O          62.7733   85.1141   15.3065 O.3     1  UNL1       -0.4730
     41 C          63.9094   86.0464   15.6066 C.3     1  UNL1        0.2318
     42 C          63.6416   87.5031   15.8441 C.3     1  UNL1        0.1286
     43 C          64.3171   87.8386   14.5475 C.3     1  UNL1        0.0332
     44 C          62.9661   87.1675   17.1406 C.3     1  UNL1        0.0332
     45 O          63.3737   88.9597   16.0815 O.3     1  UNL1       -0.3831
     46 H          63.7279   89.4783   15.3422 H       1  UNL1        0.2104
     47 C          62.1779   80.4541   13.0863 C.3     1  UNL1        0.0290
     48 C          61.2139   79.9884   14.1370 C.3     1  UNL1        0.0367
     49 C          59.8209   80.5435   14.1757 C.3     1  UNL1        0.1426
     50 C          58.7279   78.2230   14.5889 C.3     1  UNL1        0.1741
     51 O          58.6990   79.7162   14.7295 O.3     1  UNL1       -0.3511
@<TRIPOS>BOND
     1    50    51    1
     2    51    49    1
     3    49    48    1
     4    48    47    1
     5    47    34    1
     6    34    35   ar
     7    35    36   ar
     8    36    33    1
     9    33    27    1
    10    27    28   am
    11    28    29    2
    12     1    28    1
    13     1     2    1
    14     2     3    1
    15     3     4    1
    16     4     5    1
    17     5     6    1
    18     6     8    1
    19     8     9   ar
    20     9    10   ar
    21    10    11   ar
    22    11    14    1
    23    14    15    1
    24    15    16    1
    25    16    17    1
    26    17    18    1
    27    18    19   ar
    28    19    20    1
    29    19    21   ar
    30    21    22   ar
    31    22    23    1
    32    22    24   ar
    33    24    25   ar
    34    25    26    1
    35    11    12   ar
    36    12    13   ar
    37    27    30    1
    38    30    31    1
    39    31    32    1
    40    36    37   ar
    41    37    38   ar
    42    38    40    1
    43    40    41    1
    44    41    42    1
    45    42    43    1
    46    42    44    1
    47    42    45    1
    48    38    39   ar
    49    39    34   ar
    50     6     1    1
    51    13     8   ar
    52    32    30    1
    53    25    18   ar
    54     3     7    1
    55    45    46    1
@<TRIPOS>MOLECULE
*****
 51 55 0 0 0
SMALL
GASTEIGER

@<TRIPOS>ATOM
      1 C          60.6357   90.0136   11.2159 C.3     1  UNL1        0.0964
      2 C          59.7093   91.1120   11.6463 C.3     1  UNL1        0.0780
      3 N          58.3469   90.7788   12.1779 N.3     1  UNL1       -0.2970
      4 C          57.9107   89.3472   12.2791 C.3     1  UNL1        0.0689
      5 C          58.8371   88.2487   11.8486 C.3     1  UNL1        0.0220
      6 C          60.1996   88.5819   11.3170 C.3     1  UNL1        0.0337
      7 H          57.6723   91.2502   11.5754 H       1  UNL1        0.1233
      8 C          61.1260   87.4836   10.8865 C.ar    1  UNL1       -0.0217
      9 C          61.8466   86.6638   11.9156 C.ar    1  UNL1       -0.0012
     10 C          62.7729   85.5654   11.4851 C.ar    1  UNL1        0.0366
     11 C          62.9788   85.2867   10.0256 C.ar    1  UNL1        0.1387
     12 C          62.2583   86.1065    8.9967 C.ar    1  UNL1        0.0366
     13 C          61.3319   87.2049    9.4271 C.ar    1  UNL1       -0.0012
     14 O          63.9052   84.1884    9.5952 O.3     1  UNL1       -0.4714
     15 C          64.6400   83.3807   10.6238 C.3     1  UNL1        0.2525
     16 C          63.8773   82.5186   11.5855 C.3     1  UNL1        0.2525
     17 O          64.3571   82.3653   12.9983 O.3     1  UNL1       -0.4697
     18 C          63.8682   83.3028   14.0624 C.ar    1  UNL1        0.1596
     19 C          64.7263   84.4521   14.5013 C.ar    1  UNL1        0.0921
     20 CL         66.0733   84.6640   13.8763 Cl      1  UNL1       -0.0791
     21 C          64.2374   85.3896   15.5654 C.ar    1  UNL1        0.0103
     22 C          62.8904   85.1777   16.1904 C.ar    1  UNL1       -0.0200
     23 C          62.4015   86.1151   17.2544 C.3     1  UNL1        0.0311
     24 C          62.0323   84.0283   15.7514 C.ar    1  UNL1        0.0103
     25 C          62.5212   83.0909   14.6874 C.ar    1  UNL1        0.0921
     26 CL         61.6631   81.9415   14.2484 Cl      1  UNL1       -0.0791
     27 N          63.1659   90.4427   11.6209 N.am    1  UNL1       -0.2770
     28 C          61.9982   90.3469   10.6843 C.2     1  UNL1        0.2270
     29 O          62.1930   90.5842    9.2160 O.2     1  UNL1       -0.2748
     30 C          62.9711   90.2054   13.0891 C.3     1  UNL1        0.0758
     31 C          62.1103   89.7433   14.2273 C.3     1  UNL1        0.0215
     32 C          63.4944   90.2563   14.4939 C.3     1  UNL1        0.0215
     33 C          64.5284   90.7760   11.0893 C.3     1  UNL1        0.1201
     34 C          65.8126   94.4731   10.4319 C.ar    1  UNL1       -0.0194
     35 C          65.2268   93.1128   10.1941 C.ar    1  UNL1       -0.0067
     36 C          65.1142   92.1362   11.3271 C.ar    1  UNL1        0.0004
     37 C          65.5874   92.5199   12.6978 C.ar    1  UNL1        0.0343
     38 C          66.1732   93.8801   12.9356 C.ar    1  UNL1        0.1381
     39 C          66.2858   94.8567   11.8027 C.ar    1  UNL1        0.0326
     40 O          66.6464   94.2638   14.3064 O.3     1  UNL1       -0.4730
     41 C          66.8292   93.2107   15.3587 C.3     1  UNL1        0.2318
     42 C          68.1749   92.5803   15.5633 C.3     1  UNL1        0.1286
     43 C          67.6110   91.2480   15.1670 C.3     1  UNL1        0.0332
     44 C          68.7387   93.9126   15.9596 C.3     1  UNL1        0.0332
     45 O          69.5205   91.9500   15.7679 O.3     1  UNL1       -0.3831
     46 H          69.4669   91.0019   15.5703 H       1  UNL1        0.2104
     47 C          65.9252   95.4497    9.2990 C.3     1  UNL1        0.0290
     48 C          67.2452   95.6594    8.6180 C.3     1  UNL1        0.0367
     49 C          68.1479   94.4905    8.3558 C.3     1  UNL1        0.1426
     50 C          68.7448   92.3141    9.6430 C.3     1  UNL1        0.1741
     51 O          68.8371   93.8042    9.4977 O.3     1  UNL1       -0.3511
@<TRIPOS>BOND
     1    50    51    1
     2    51    49    1
     3    49    48    1
     4    48    47    1
     5    47    34    1
     6    34    35   ar
     7    35    36   ar
     8    36    33    1
     9    33    27    1
    10    27    28   am
    11    28    29    2
    12     1    28    1
    13     1     2    1
    14     2     3    1
    15     3     4    1
    16     4     5    1
    17     5     6    1
    18     6     8    1
    19     8     9   ar
    20     9    10   ar
    21    10    11   ar
    22    11    14    1
    23    14    15    1
    24    15    16    1
    25    16    17    1
    26    17    18    1
    27    18    19   ar
    28    19    20    1
    29    19    21   ar
    30    21    22   ar
    31    22    23    1
    32    22    24   ar
    33    24    25   ar
    34    25    26    1
    35    11    12   ar
    36    12    13   ar
    37    27    30    1
    38    30    31    1
    39    31    32    1
    40    36    37   ar
    41    37    38   ar
    42    38    40    1
    43    40    41    1
    44    41    42    1
    45    42    43    1
    46    42    44    1
    47    42    45    1
    48    38    39   ar
    49    39    34   ar
    50     6     1    1
    51    13     8   ar
    52    32    30    1
    53    25    18   ar
    54     3     7    1
    55    45    46    1
@<TRIPOS>MOLECULE
*****
 51 55 0 0 0
SMALL
GASTEIGER

@<TRIPOS>ATOM
      1 C          63.4198   86.9529   13.0233 C.3     1  UNL1        0.0964
      2 C          64.1943   86.4301   14.1966 C.3     1  UNL1        0.0780
      3 N          64.1599   84.9673   14.5264 N.3     1  UNL1       -0.2970
      4 C          63.3509   84.0271   13.6828 C.3     1  UNL1        0.0689
      5 C          62.5763   84.5499   12.5094 C.3     1  UNL1        0.0220
      6 C          62.6107   86.0128   12.1796 C.3     1  UNL1        0.0337
      7 H          63.8040   84.8885   15.4790 H       1  UNL1        0.1233
      8 C          61.8362   86.5355   11.0063 C.ar    1  UNL1       -0.0217
      9 C          60.6078   87.3672   11.2289 C.ar    1  UNL1       -0.0012
     10 C          59.8332   87.8900   10.0556 C.ar    1  UNL1        0.0366
     11 C          60.2870   87.5811    8.6596 C.ar    1  UNL1        0.1387
     12 C          61.5153   86.7495    8.4370 C.ar    1  UNL1        0.0366
     13 C          62.2899   86.2267    9.6104 C.ar    1  UNL1       -0.0012
     14 O          59.5124   88.1039    7.4863 O.3     1  UNL1       -0.4714
     15 C          59.5373   89.5686    7.1637 C.3     1  UNL1        0.2525
     16 C          59.7116   90.0211    5.7442 C.3     1  UNL1        0.2525
     17 O          60.9189   90.8216    5.3552 O.3     1  UNL1       -0.4697
     18 C          60.9166   91.6103    4.0792 C.ar    1  UNL1        0.1596
     19 C          59.6975   92.3878    3.6803 C.ar    1  UNL1        0.0921
     20 CL         58.4806   92.3767    4.5573 Cl      1  UNL1       -0.0791
     21 C          59.6952   93.1765    2.4043 C.ar    1  UNL1        0.0103
     22 C          60.9120   93.1876    1.5273 C.ar    1  UNL1       -0.0200
     23 C          60.9098   93.9762    0.2514 C.3     1  UNL1        0.0311
     24 C          62.1312   92.4100    1.9263 C.ar    1  UNL1        0.0103
     25 C          62.1335   91.6214    3.2022 C.ar    1  UNL1        0.0921
     26 CL         63.3526   90.8438    3.6012 Cl      1  UNL1       -0.0791
     27 N          63.4214   89.4338   13.7946 N.am    1  UNL1       -0.2770
     28 C          63.4543   88.4158   12.6935 C.2     1  UNL1        0.2270
     29 O          63.5216   88.8606   11.2625 O.2     1  UNL1       -0.2748
     30 C          63.3541   88.9890   15.2255 C.3     1  UNL1        0.0758
     31 C          63.4293   87.8972   16.2513 C.3     1  UNL1        0.0215
     32 C          63.1624   89.3102   16.6781 C.3     1  UNL1        0.0215
     33 C          63.4559   90.8967   13.4648 C.3     1  UNL1        0.1201
     34 C          67.2540   91.9944   13.1187 C.ar    1  UNL1       -0.0194
     35 C          66.0009   91.3784   13.6669 C.ar    1  UNL1       -0.0067
     36 C          64.7089   91.5127   12.9167 C.ar    1  UNL1        0.0004
     37 C          64.6700   92.2629   11.6183 C.ar    1  UNL1        0.0343
     38 C          65.9230   92.8789   11.0702 C.ar    1  UNL1        0.1381
     39 C          67.2150   92.7446   11.8204 C.ar    1  UNL1        0.0326
     40 O          65.8841   93.6291    9.7718 O.3     1  UNL1       -0.4730
     41 C          65.7414   95.1223    9.7724 C.3     1  UNL1        0.2318
     42 C          66.9042   95.9870    9.3849 C.3     1  UNL1        0.1286
     43 C          66.6594   96.8537   10.5844 C.3     1  UNL1        0.0332
     44 C          67.1490   95.1202    8.1854 C.3     1  UNL1        0.0332
     45 O          68.0670   96.8517    8.9974 O.3     1  UNL1       -0.3831
     46 H          68.1684   97.5665    9.6452 H       1  UNL1        0.2104
     47 C          68.5459   91.8601   13.8688 C.3     1  UNL1        0.0290
     48 C          68.7585   92.6279   15.1399 C.3     1  UNL1        0.0367
     49 C          67.9208   92.3265   16.3471 C.3     1  UNL1        0.1426
     50 C          65.3418   92.4221   16.6464 C.3     1  UNL1        0.1741
     51 O          66.6718   93.1147   16.6092 O.3     1  UNL1       -0.3511
@<TRIPOS>BOND
     1    50    51    1
     2    51    49    1
     3    49    48    1
     4    48    47    1
     5    47    34    1
     6    34    35   ar
     7    35    36   ar
     8    36    33    1
     9    33    27    1
    10    27    28   am
    11    28    29    2
    12     1    28    1
    13     1     2    1
    14     2     3    1
    15     3     4    1
    16     4     5    1
    17     5     6    1
    18     6     8    1
    19     8     9   ar
    20     9    10   ar
    21    10    11   ar
    22    11    14    1
    23    14    15    1
    24    15    16    1
    25    16    17    1
    26    17    18    1
    27    18    19   ar
    28    19    20    1
    29    19    21   ar
    30    21    22   ar
    31    22    23    1
    32    22    24   ar
    33    24    25   ar
    34    25    26    1
    35    11    12   ar
    36    12    13   ar
    37    27    30    1
    38    30    31    1
    39    31    32    1
    40    36    37   ar
    41    37    38   ar
    42    38    40    1
    43    40    41    1
    44    41    42    1
    45    42    43    1
    46    42    44    1
    47    42    45    1
    48    38    39   ar
    49    39    34   ar
    50     6     1    1
    51    13     8   ar
    52    32    30    1
    53    25    18   ar
    54     3     7    1
    55    45    46    1
@<TRIPOS>MOLECULE
*****
 51 55 0 0 0
SMALL
GASTEIGER

@<TRIPOS>ATOM
      1 C          63.8536   90.8744   13.6073 C.3     1  UNL1        0.0964
      2 C          64.3305   92.1501   12.9789 C.3     1  UNL1        0.0780
      3 N          65.6927   92.6849   13.3082 N.3     1  UNL1       -0.2970
      4 C          66.5779   91.9441   14.2660 C.3     1  UNL1        0.0689
      5 C          66.1009   90.6683   14.8945 C.3     1  UNL1        0.0220
      6 C          64.7388   90.1335   14.5652 C.3     1  UNL1        0.0337
      7 H          65.5567   93.6188   13.6952 H       1  UNL1        0.1233
      8 C          64.2618   88.8577   15.1937 C.ar    1  UNL1       -0.0217
      9 C          64.5826   87.5401   14.5526 C.ar    1  UNL1       -0.0012
     10 C          64.1057   86.2644   15.1811 C.ar    1  UNL1        0.0366
     11 C          63.3079   86.3062   16.4506 C.ar    1  UNL1        0.1387
     12 C          62.9870   87.6238   17.0917 C.ar    1  UNL1        0.0366
     13 C          63.4640   88.8996   16.4632 C.ar    1  UNL1       -0.0012
     14 O          62.8309   85.0305   17.0791 O.3     1  UNL1       -0.4714
     15 C          62.3310   83.9102   16.2158 C.3     1  UNL1        0.2525
     16 C          63.1202   83.4789   15.0154 C.3     1  UNL1        0.2525
     17 O          62.5270   83.6037   13.6434 O.3     1  UNL1       -0.4697
     18 C          62.6707   82.4809   12.6591 C.ar    1  UNL1        0.1596
     19 C          63.3193   82.7277   11.3293 C.ar    1  UNL1        0.0921
     20 CL         63.8242   84.0972   10.9837 Cl      1  UNL1       -0.0791
     21 C          63.4631   81.6049   10.3450 C.ar    1  UNL1        0.0103
     22 C          62.9582   80.2353   10.6906 C.ar    1  UNL1       -0.0200
     23 C          63.1020   79.1126    9.7064 C.3     1  UNL1        0.0311
     24 C          62.3096   79.9886   12.0205 C.ar    1  UNL1        0.0103
     25 C          62.1658   81.1113   13.0047 C.ar    1  UNL1        0.0921
     26 CL         61.5172   80.8646   14.3345 Cl      1  UNL1       -0.0791
     27 N          61.9982   90.3643   11.8616 N.am    1  UNL1       -0.2770
     28 C          62.4914   90.3396   13.2780 C.2     1  UNL1        0.2270
     29 O          61.6224   89.7800   14.3651 O.2     1  UNL1       -0.2748
     30 C          62.8673   90.9239   10.7746 C.3     1  UNL1        0.0758
     31 C          64.2275   91.2842   10.2550 C.3     1  UNL1        0.0215
     32 C          63.0123   91.5328    9.4115 C.3     1  UNL1        0.0215
     33 C          60.6361   89.8295   11.5323 C.3     1  UNL1        0.1201
     34 C          59.5001   89.0084    7.8194 C.ar    1  UNL1       -0.0194
     35 C          59.7229   89.7552    9.1011 C.ar    1  UNL1       -0.0067
     36 C          60.4132   89.0828   10.2506 C.ar    1  UNL1        0.0004
     37 C          60.8807   87.6636   10.1184 C.ar    1  UNL1        0.0343
     38 C          60.6579   86.9169    8.8367 C.ar    1  UNL1        0.1381
     39 C          59.9676   87.5893    7.6872 C.ar    1  UNL1        0.0326
     40 O          61.1254   85.4977    8.7045 O.3     1  UNL1       -0.4730
     41 C          61.0199   84.7932    7.3845 C.3     1  UNL1        0.2318
     42 C          62.2372   84.6258    6.5242 C.3     1  UNL1        0.1286
     43 C          61.3769   84.1172    5.4057 C.3     1  UNL1        0.0332
     44 C          63.0976   85.1344    7.6428 C.3     1  UNL1        0.0332
     45 O          63.4546   84.4584    5.6640 O.3     1  UNL1       -0.3831
     46 H          63.1924   84.1122    4.7966 H       1  UNL1        0.2104
     47 C          58.8098   89.6808    6.6699 C.3     1  UNL1        0.0290
     48 C          59.5783   90.5999    5.7673 C.3     1  UNL1        0.0367
     49 C          58.8475   91.5608    4.8770 C.3     1  UNL1        0.1426
     50 C          60.0638   92.9244    3.0301 C.3     1  UNL1        0.1741
     51 O          59.5194   92.8230    4.4241 O.3     1  UNL1       -0.3511
@<TRIPOS>BOND
     1    50    51    1
     2    51    49    1
     3    49    48    1
     4    48    47    1
     5    47    34    1
     6    34    35   ar
     7    35    36   ar
     8    36    33    1
     9    33    27    1
    10    27    28   am
    11    28    29    2
    12     1    28    1
    13     1     2    1
    14     2     3    1
    15     3     4    1
    16     4     5    1
    17     5     6    1
    18     6     8    1
    19     8     9   ar
    20     9    10   ar
    21    10    11   ar
    22    11    14    1
    23    14    15    1
    24    15    16    1
    25    16    17    1
    26    17    18    1
    27    18    19   ar
    28    19    20    1
    29    19    21   ar
    30    21    22   ar
    31    22    23    1
    32    22    24   ar
    33    24    25   ar
    34    25    26    1
    35    11    12   ar
    36    12    13   ar
    37    27    30    1
    38    30    31    1
    39    31    32    1
    40    36    37   ar
    41    37    38   ar
    42    38    40    1
    43    40    41    1
    44    41    42    1
    45    42    43    1
    46    42    44    1
    47    42    45    1
    48    38    39   ar
    49    39    34   ar
    50     6     1    1
    51    13     8   ar
    52    32    30    1
    53    25    18   ar
    54     3     7    1
    55    45    46    1
@<TRIPOS>MOLECULE
*****
 51 55 0 0 0
SMALL
GASTEIGER

@<TRIPOS>ATOM
      1 C          59.9105   88.3406    9.2199 C.3     1  UNL1        0.0964
      2 C          58.9813   87.7593    8.1959 C.3     1  UNL1        0.0780
      3 N          58.8020   88.4420    6.8724 N.3     1  UNL1       -0.2970
      4 C          59.5520   89.7060    6.5728 C.3     1  UNL1        0.0689
      5 C          60.4812   90.2874    7.5967 C.3     1  UNL1        0.0220
      6 C          60.6605   89.6047    8.9203 C.3     1  UNL1        0.0337
      7 H          57.8096   88.6609    6.7860 H       1  UNL1        0.1233
      8 C          61.5898   90.1860    9.9443 C.ar    1  UNL1       -0.0217
      9 C          62.7346   91.0534    9.5116 C.ar    1  UNL1       -0.0012
     10 C          63.6639   91.6347   10.5356 C.ar    1  UNL1        0.0366
     11 C          63.4483   91.3488   11.9922 C.ar    1  UNL1        0.1387
     12 C          62.3035   90.4815   12.4249 C.ar    1  UNL1        0.0366
     13 C          61.3742   89.9001   11.4009 C.ar    1  UNL1       -0.0012
     14 O          64.3775   91.9301   13.0162 O.3     1  UNL1       -0.4714
     15 C          65.7522   91.3565   13.1930 C.3     1  UNL1        0.2525
     16 C          66.9590   92.2213   12.9794 C.3     1  UNL1        0.2525
     17 O          67.6225   92.2640   11.6349 O.3     1  UNL1       -0.4697
     18 C          67.3609   93.4120   10.7054 C.ar    1  UNL1        0.1596
     19 C          67.8310   93.3471    9.2825 C.ar    1  UNL1        0.0921
     20 CL         68.5627   92.1343    8.7889 Cl      1  UNL1       -0.0791
     21 C          67.5694   94.4951    8.3531 C.ar    1  UNL1        0.0103
     22 C          66.8377   95.7080    8.8467 C.ar    1  UNL1       -0.0200
     23 C          66.5761   96.8559    7.9174 C.3     1  UNL1        0.0311
     24 C          66.3677   95.7728   10.2697 C.ar    1  UNL1        0.0103
     25 C          66.6293   94.6249   11.1991 C.ar    1  UNL1        0.0921
     26 CL         66.1592   94.6897   12.6221 Cl      1  UNL1       -0.0791
     27 N          61.0399   86.5041   10.6696 N.am    1  UNL1       -0.2770
     28 C          60.0898   87.6579   10.5434 C.2     1  UNL1        0.2270
     29 O          59.3189   88.1291   11.7409 O.2     1  UNL1       -0.2748
     30 C          61.8108   86.0330    9.4722 C.3     1  UNL1        0.0758
     31 C          61.8428   85.3768    8.1237 C.3     1  UNL1        0.0215
     32 C          63.1138   85.8732    8.7466 C.3     1  UNL1        0.0215
     33 C          61.2192   85.8215   11.9931 C.3     1  UNL1        0.1201
     34 C          63.5482   82.6246   11.6665 C.ar    1  UNL1       -0.0194
     35 C          62.4028   83.5710   11.4597 C.ar    1  UNL1       -0.0067
     36 C          62.3645   84.8751   12.1999 C.ar    1  UNL1        0.0004
     37 C          63.4715   85.2328   13.1468 C.ar    1  UNL1        0.0343
     38 C          64.6167   84.2865   13.3536 C.ar    1  UNL1        0.1381
     39 C          64.6551   82.9824   12.6134 C.ar    1  UNL1        0.0326
     40 O          65.7238   84.6442   14.3005 O.3     1  UNL1       -0.4730
     41 C          65.6769   85.9406   15.0536 C.3     1  UNL1        0.2318
     42 C          64.3717   86.4503   15.5889 C.3     1  UNL1        0.1286
     43 C          64.5256   87.7002   14.7740 C.3     1  UNL1        0.0332
     44 C          64.2177   85.2004   16.4037 C.3     1  UNL1        0.0332
     45 O          63.0664   86.9600   16.1242 O.3     1  UNL1       -0.3831
     46 H          62.8789   87.8319   15.7427 H       1  UNL1        0.2104
     47 C          63.5865   81.3206   10.9263 C.3     1  UNL1        0.0290
     48 C          62.8319   80.1363   11.4538 C.3     1  UNL1        0.0367
     49 C          62.5229   80.0355   12.9182 C.3     1  UNL1        0.1426
     50 C          60.2584   80.4209   14.1321 C.3     1  UNL1        0.1741
     51 O          61.5240   80.9661   13.5397 O.3     1  UNL1       -0.3511
@<TRIPOS>BOND
     1    50    51    1
     2    51    49    1
     3    49    48    1
     4    48    47    1
     5    47    34    1
     6    34    35   ar
     7    35    36   ar
     8    36    33    1
     9    33    27    1
    10    27    28   am
    11    28    29    2
    12     1    28    1
    13     1     2    1
    14     2     3    1
    15     3     4    1
    16     4     5    1
    17     5     6    1
    18     6     8    1
    19     8     9   ar
    20     9    10   ar
    21    10    11   ar
    22    11    14    1
    23    14    15    1
    24    15    16    1
    25    16    17    1
    26    17    18    1
    27    18    19   ar
    28    19    20    1
    29    19    21   ar
    30    21    22   ar
    31    22    23    1
    32    22    24   ar
    33    24    25   ar
    34    25    26    1
    35    11    12   ar
    36    12    13   ar
    37    27    30    1
    38    30    31    1
    39    31    32    1
    40    36    37   ar
    41    37    38   ar
    42    38    40    1
    43    40    41    1
    44    41    42    1
    45    42    43    1
    46    42    44    1
    47    42    45    1
    48    38    39   ar
    49    39    34   ar
    50     6     1    1
    51    13     8   ar
    52    32    30    1
    53    25    18   ar
    54     3     7    1
    55    45    46    1
@<TRIPOS>MOLECULE
*****
 51 55 0 0 0
SMALL
GASTEIGER

@<TRIPOS>ATOM
      1 C          63.2367   86.8345   12.6052 C.3     1  UNL1        0.0964
      2 C          64.0945   86.1947   13.6563 C.3     1  UNL1        0.0780
      3 N          64.1121   84.7020   13.8036 N.3     1  UNL1       -0.2970
      4 C          63.2718   83.8492   12.8999 C.3     1  UNL1        0.0689
      5 C          62.4139   84.4891   11.8488 C.3     1  UNL1        0.0220
      6 C          62.3964   85.9817   11.7015 C.3     1  UNL1        0.0337
      7 H          63.8186   84.4970   14.7587 H       1  UNL1        0.1233
      8 C          61.5385   86.6215   10.6505 C.ar    1  UNL1       -0.0217
      9 C          61.7606   86.2990    9.2024 C.ar    1  UNL1       -0.0012
     10 C          60.9028   86.9388    8.1514 C.ar    1  UNL1        0.0366
     11 C          59.8229   87.9012    8.5483 C.ar    1  UNL1        0.1387
     12 C          59.6008   88.2238    9.9962 C.ar    1  UNL1        0.0366
     13 C          60.4586   87.5840   11.0474 C.ar    1  UNL1       -0.0012
     14 O          58.9651   88.5411    7.4973 O.3     1  UNL1       -0.4714
     15 C          59.5621   88.9330    6.1782 C.3     1  UNL1        0.2525
     16 C          59.7414   90.3826    5.8371 C.3     1  UNL1        0.2525
     17 O          61.0392   90.8617    5.2573 O.3     1  UNL1       -0.4697
     18 C          61.0439   91.6607    3.9877 C.ar    1  UNL1        0.1596
     19 C          59.8343   92.4579    3.5988 C.ar    1  UNL1        0.0921
     20 CL         58.6200   92.4562    4.4794 Cl      1  UNL1       -0.0791
     21 C          59.8390   93.2569    2.3292 C.ar    1  UNL1        0.0103
     22 C          61.0533   93.2585    1.4486 C.ar    1  UNL1       -0.0200
     23 C          61.0581   94.0575    0.1791 C.3     1  UNL1        0.0311
     24 C          62.2629   92.4612    1.8376 C.ar    1  UNL1        0.0103
     25 C          62.2582   91.6623    3.1071 C.ar    1  UNL1        0.0921
     26 CL         63.4678   90.8650    3.4961 Cl      1  UNL1       -0.0791
     27 N          63.2915   89.2018   13.6743 N.am    1  UNL1       -0.2770
     28 C          63.2191   88.3272   12.4579 C.2     1  UNL1        0.2270
     29 O          63.1291   88.9452   11.0940 O.2     1  UNL1       -0.2748
     30 C          63.3814   88.5838   15.0381 C.3     1  UNL1        0.0758
     31 C          63.0775   88.6267   16.5063 C.3     1  UNL1        0.0215
     32 C          63.8412   87.4705   15.9320 C.3     1  UNL1        0.0215
     33 C          63.2739   90.6944   13.5269 C.3     1  UNL1        0.1201
     34 C          65.6156   93.1095   11.4212 C.ar    1  UNL1       -0.0194
     35 C          64.3924   92.3893   11.9064 C.ar    1  UNL1       -0.0067
     36 C          64.4969   91.4146   13.0418 C.ar    1  UNL1        0.0004
     37 C          65.8246   91.1602   13.6920 C.ar    1  UNL1        0.0343
     38 C          67.0476   91.8804   13.2068 C.ar    1  UNL1        0.1381
     39 C          66.9431   92.8551   12.0714 C.ar    1  UNL1        0.0326
     40 O          68.3753   91.6260   13.8570 O.3     1  UNL1       -0.4730
     41 C          68.5437   91.8494   15.3307 C.3     1  UNL1        0.2318
     42 C          68.5425   93.2441   15.8828 C.3     1  UNL1        0.1286
     43 C          69.9312   93.4539   15.3561 C.3     1  UNL1        0.0332
     44 C          67.1537   93.0343   16.4095 C.3     1  UNL1        0.0332
     45 O          68.5412   94.6388   16.4349 O.3     1  UNL1       -0.3831
     46 H          69.3876   95.0673   16.2328 H       1  UNL1        0.2104
     47 C          65.5111   94.0842   10.2858 C.3     1  UNL1        0.0290
     48 C          66.6338   95.0408   10.0128 C.3     1  UNL1        0.0367
     49 C          67.6809   94.6974    8.9951 C.3     1  UNL1        0.1426
     50 C          68.8881   92.3986    9.0853 C.3     1  UNL1        0.1741
     51 O          68.8664   93.8673    9.3894 O.3     1  UNL1       -0.3511
@<TRIPOS>BOND
     1    50    51    1
     2    51    49    1
     3    49    48    1
     4    48    47    1
     5    47    34    1
     6    34    35   ar
     7    35    36   ar
     8    36    33    1
     9    33    27    1
    10    27    28   am
    11    28    29    2
    12     1    28    1
    13     1     2    1
    14     2     3    1
    15     3     4    1
    16     4     5    1
    17     5     6    1
    18     6     8    1
    19     8     9   ar
    20     9    10   ar
    21    10    11   ar
    22    11    14    1
    23    14    15    1
    24    15    16    1
    25    16    17    1
    26    17    18    1
    27    18    19   ar
    28    19    20    1
    29    19    21   ar
    30    21    22   ar
    31    22    23    1
    32    22    24   ar
    33    24    25   ar
    34    25    26    1
    35    11    12   ar
    36    12    13   ar
    37    27    30    1
    38    30    31    1
    39    31    32    1
    40    36    37   ar
    41    37    38   ar
    42    38    40    1
    43    40    41    1
    44    41    42    1
    45    42    43    1
    46    42    44    1
    47    42    45    1
    48    38    39   ar
    49    39    34   ar
    50     6     1    1
    51    13     8   ar
    52    32    30    1
    53    25    18   ar
    54     3     7    1
    55    45    46    1
@<TRIPOS>MOLECULE
*****
 51 55 0 0 0
SMALL
GASTEIGER

@<TRIPOS>ATOM
      1 C          60.6848   89.8257   11.4116 C.3     1  UNL1        0.0964
      2 C          59.7317   90.9043   11.8337 C.3     1  UNL1        0.0780
      3 N          58.3248   90.5537   12.2179 N.3     1  UNL1       -0.2970
      4 C          57.8709   89.1245   12.1800 C.3     1  UNL1        0.0689
      5 C          58.8240   88.0459   11.7579 C.3     1  UNL1        0.0220
      6 C          60.2310   88.3964   11.3737 C.3     1  UNL1        0.0337
      7 H          57.7102   91.0745   11.5922 H       1  UNL1        0.1233
      8 C          61.1841   87.3178   10.9516 C.ar    1  UNL1       -0.0217
      9 C          61.8852   86.4892   11.9869 C.ar    1  UNL1       -0.0012
     10 C          62.8383   85.4106   11.5648 C.ar    1  UNL1        0.0366
     11 C          63.0903   85.1606   10.1074 C.ar    1  UNL1        0.1387
     12 C          62.3892   85.9892    9.0721 C.ar    1  UNL1        0.0366
     13 C          61.4360   87.0678    9.4942 C.ar    1  UNL1       -0.0012
     14 O          64.0434   84.0820    9.6853 O.3     1  UNL1       -0.4714
     15 C          64.7581   83.2653   10.7208 C.3     1  UNL1        0.2525
     16 C          63.9751   82.4190   11.6802 C.3     1  UNL1        0.2525
     17 O          64.4132   82.3058   13.1103 O.3     1  UNL1       -0.4697
     18 C          63.9051   83.2816   14.1300 C.ar    1  UNL1        0.1596
     19 C          64.7663   84.4310   14.5624 C.ar    1  UNL1        0.0921
     20 CL         66.1357   84.6047   13.9753 Cl      1  UNL1       -0.0791
     21 C          64.2582   85.4069   15.5821 C.ar    1  UNL1        0.0103
     22 C          62.8888   85.2333   16.1692 C.ar    1  UNL1       -0.0200
     23 C          62.3807   86.2091   17.1888 C.3     1  UNL1        0.0311
     24 C          62.0276   84.0838   15.7367 C.ar    1  UNL1        0.0103
     25 C          62.5357   83.1080   14.7171 C.ar    1  UNL1        0.0921
     26 CL         61.6745   81.9585   14.2846 Cl      1  UNL1       -0.0791
     27 N          63.1698   90.2013   12.0700 N.am    1  UNL1       -0.2770
     28 C          62.0917   90.1763   11.0274 C.2     1  UNL1        0.2270
     29 O          62.4206   90.5018    9.6005 O.2     1  UNL1       -0.2748
     30 C          62.8409   89.8758   13.4968 C.3     1  UNL1        0.0758
     31 C          63.2814   89.4601   14.8691 C.3     1  UNL1        0.0215
     32 C          61.8310   89.7276   14.5959 C.3     1  UNL1        0.0215
     33 C          64.5768   90.5519   11.6858 C.3     1  UNL1        0.1201
     34 C          66.3369   92.8791   14.3758 C.ar    1  UNL1       -0.0194
     35 C          65.6622   91.6935   13.7518 C.ar    1  UNL1       -0.0067
     36 C          65.2514   91.7374   12.3099 C.ar    1  UNL1        0.0004
     37 C          65.5152   92.9668   11.4919 C.ar    1  UNL1        0.0343
     38 C          66.1898   94.1523   12.1159 C.ar    1  UNL1        0.1381
     39 C          66.6007   94.1084   13.5579 C.ar    1  UNL1        0.0326
     40 O          66.4536   95.3817   11.2980 O.3     1  UNL1       -0.4730
     41 C          67.2759   95.2881   10.0470 C.3     1  UNL1        0.2318
     42 C          66.6505   95.5785    8.7149 C.3     1  UNL1        0.1286
     43 C          67.4879   94.5038    8.0875 C.3     1  UNL1        0.0332
     44 C          65.8131   96.6532    9.3423 C.3     1  UNL1        0.0332
     45 O          66.0251   95.8689    7.3828 O.3     1  UNL1       -0.3831
     46 H          66.4009   95.2763    6.7131 H       1  UNL1        0.2104
     47 C          66.7477   92.8352   15.8178 C.3     1  UNL1        0.0290
     48 C          68.0633   92.2270   16.2047 C.3     1  UNL1        0.0367
     49 C          69.3446   92.8521   15.7383 C.3     1  UNL1        0.1426
     50 C          69.3435   91.6086   13.4572 C.3     1  UNL1        0.1741
     51 O          69.7196   92.8003   14.2869 O.3     1  UNL1       -0.3511
@<TRIPOS>BOND
     1    50    51    1
     2    51    49    1
     3    49    48    1
     4    48    47    1
     5    47    34    1
     6    34    35   ar
     7    35    36   ar
     8    36    33    1
     9    33    27    1
    10    27    28   am
    11    28    29    2
    12     1    28    1
    13     1     2    1
    14     2     3    1
    15     3     4    1
    16     4     5    1
    17     5     6    1
    18     6     8    1
    19     8     9   ar
    20     9    10   ar
    21    10    11   ar
    22    11    14    1
    23    14    15    1
    24    15    16    1
    25    16    17    1
    26    17    18    1
    27    18    19   ar
    28    19    20    1
    29    19    21   ar
    30    21    22   ar
    31    22    23    1
    32    22    24   ar
    33    24    25   ar
    34    25    26    1
    35    11    12   ar
    36    12    13   ar
    37    27    30    1
    38    30    31    1
    39    31    32    1
    40    36    37   ar
    41    37    38   ar
    42    38    40    1
    43    40    41    1
    44    41    42    1
    45    42    43    1
    46    42    44    1
    47    42    45    1
    48    38    39   ar
    49    39    34   ar
    50     6     1    1
    51    13     8   ar
    52    32    30    1
    53    25    18   ar
    54     3     7    1
    55    45    46    1
