@<TRIPOS>MOLECULE
*****
 17 18 0 0 0
SMALL
GASTEIGER

@<TRIPOS>ATOM
      1 C          63.5045   90.7556   13.3801 C.3     1  UNL1        0.0122
      2 C          64.6476   91.1753   14.2559 C.3     1  UNL1        0.0758
      3 C          65.7907   91.5950   15.1317 C.3     1  UNL1        0.0122
      4 C          65.3621   91.7281   13.0583 C.ar    1  UNL1        0.0033
      5 C          64.6152   91.9532   11.7772 C.ar    1  UNL1       -0.0007
      6 C          65.3296   92.5059   10.5797 C.ar    1  UNL1        0.0204
      7 C          66.7910   92.8335   10.6633 C.ar    1  UNL1        0.0989
      8 N          67.5379   92.6084   11.9445 N.ar    1  UNL1       -0.2426
      9 C          66.8235   92.0557   13.1420 C.ar    1  UNL1        0.0950
     10 C          63.9331   90.6226   15.4533 C.2     1  UNL1        0.1775
     11 O          63.3244   91.5538   16.4594 O.2     1  UNL1       -0.2910
     12 C          63.8273   89.1386   15.6447 C.ar    1  UNL1        0.0541
     13 C          64.4636   88.2076   14.6557 C.ar    1  UNL1        0.0060
     14 C          64.3578   86.7236   14.8471 C.ar    1  UNL1        0.0208
     15 C          63.6157   86.1707   16.0276 C.ar    1  UNL1        0.0989
     16 N          62.9794   87.1017   17.0166 N.ar    1  UNL1       -0.2422
     17 C          63.0852   88.5857   16.8252 C.ar    1  UNL1        0.1017
@<TRIPOS>BOND
     1     1     2    1
     2     2     3    1
     3     2    10    1
     4    10    11    2
     5    10    12    1
     6    12    13   ar
     7    13    14   ar
     8    14    15   ar
     9    15    16   ar
    10    16    17   ar
    11     2     4    1
    12     4     5   ar
    13     5     6   ar
    14     6     7   ar
    15     7     8   ar
    16     8     9   ar
    17    17    12   ar
    18     9     4   ar
@<TRIPOS>MOLECULE
*****
 17 18 0 0 0
SMALL
GASTEIGER

@<TRIPOS>ATOM
      1 C          62.1569   86.8077   10.8442 C.3     1  UNL1        0.0122
      2 C          61.1984   87.6118   10.0168 C.3     1  UNL1        0.0758
      3 C          60.2398   88.4158    9.1894 C.3     1  UNL1        0.0122
      4 C          61.3295   86.6189    8.9000 C.ar    1  UNL1        0.0033
      5 C          62.6469   85.9494    8.6426 C.ar    1  UNL1       -0.0007
      6 C          62.7781   84.9566    7.5259 C.ar    1  UNL1        0.0204
      7 C          61.5920   84.6332    6.6667 C.ar    1  UNL1        0.0989
      8 N          60.2746   85.3027    6.9241 N.ar    1  UNL1       -0.2426
      9 C          60.1434   86.2955    8.0407 C.ar    1  UNL1        0.0950
     10 C          61.0672   88.6046   11.1335 C.2     1  UNL1        0.1775
     11 O          59.8551   88.5840   12.0169 O.2     1  UNL1       -0.2910
     12 C          62.1482   89.6180   11.3668 C.ar    1  UNL1        0.0541
     13 C          62.6343   90.4708   10.2326 C.ar    1  UNL1        0.0060
     14 C          63.7153   91.4842   10.4660 C.ar    1  UNL1        0.0208
     15 C          64.3101   91.6449   11.8336 C.ar    1  UNL1        0.0989
     16 N          63.8241   90.7921   12.9678 N.ar    1  UNL1       -0.2422
     17 C          62.7431   89.7787   12.7344 C.ar    1  UNL1        0.1017
@<TRIPOS>BOND
     1     1     2    1
     2     2     3    1
     3     2    10    1
     4    10    11    2
     5    10    12    1
     6    12    13   ar
     7    13    14   ar
     8    14    15   ar
     9    15    16   ar
    10    16    17   ar
    11     2     4    1
    12     4     5   ar
    13     5     6   ar
    14     6     7   ar
    15     7     8   ar
    16     8     9   ar
    17    17    12   ar
    18     9     4   ar
@<TRIPOS>MOLECULE
*****
 17 18 0 0 0
SMALL
GASTEIGER

@<TRIPOS>ATOM
      1 C          63.0189   85.3100    8.5929 C.3     1  UNL1        0.0122
      2 C          62.2568   85.6030    9.8512 C.3     1  UNL1        0.0758
      3 C          61.4948   85.8959   11.1095 C.3     1  UNL1        0.0122
      4 C          63.0191   84.5253   10.5637 C.ar    1  UNL1        0.0033
      5 C          62.9296   84.4049   12.0562 C.ar    1  UNL1       -0.0007
      6 C          63.6919   83.3273   12.7687 C.ar    1  UNL1        0.0204
      7 C          64.5436   82.3701   11.9887 C.ar    1  UNL1        0.0989
      8 N          64.6331   82.4906   10.4963 N.ar    1  UNL1       -0.2426
      9 C          63.8709   83.5682    9.7837 C.ar    1  UNL1        0.0950
     10 C          61.4946   86.6806    9.1387 C.2     1  UNL1        0.1775
     11 O          60.7626   86.3664    7.8677 O.2     1  UNL1       -0.2910
     12 C          61.4643   88.0725    9.6971 C.ar    1  UNL1        0.0541
     13 C          62.7438   88.7541   10.0822 C.ar    1  UNL1        0.0060
     14 C          62.7135   90.1459   10.6406 C.ar    1  UNL1        0.0208
     15 C          61.4038   90.8561   10.8140 C.ar    1  UNL1        0.0989
     16 N          60.1243   90.1745   10.4289 N.ar    1  UNL1       -0.2422
     17 C          60.1546   88.7827    9.8705 C.ar    1  UNL1        0.1017
@<TRIPOS>BOND
     1     1     2    1
     2     2     3    1
     3     2    10    1
     4    10    11    2
     5    10    12    1
     6    12    13   ar
     7    13    14   ar
     8    14    15   ar
     9    15    16   ar
    10    16    17   ar
    11     2     4    1
    12     4     5   ar
    13     5     6   ar
    14     6     7   ar
    15     7     8   ar
    16     8     9   ar
    17    17    12   ar
    18     9     4   ar
@<TRIPOS>MOLECULE
*****
 17 18 0 0 0
SMALL
GASTEIGER

@<TRIPOS>ATOM
      1 C          63.8276   90.5748   16.2147 C.3     1  UNL1        0.0122
      2 C          64.1169   89.8163   14.9534 C.3     1  UNL1        0.0758
      3 C          64.4063   89.0578   13.6921 C.3     1  UNL1        0.0122
      4 C          63.7421   88.5352   15.6379 C.ar    1  UNL1        0.0033
      5 C          63.0402   88.5705   16.9631 C.ar    1  UNL1       -0.0007
      6 C          62.6653   87.2895   17.6475 C.ar    1  UNL1        0.0204
      7 C          62.9923   85.9733   17.0068 C.ar    1  UNL1        0.0989
      8 N          63.6942   85.9381   15.6816 N.ar    1  UNL1       -0.2426
      9 C          64.0691   87.2190   14.9972 C.ar    1  UNL1        0.0950
     10 C          64.4918   91.0973   14.2690 C.2     1  UNL1        0.1775
     11 O          63.5395   91.7384   13.3035 O.2     1  UNL1       -0.2910
     12 C          65.8190   91.7374   14.5501 C.ar    1  UNL1        0.0541
     13 C          66.0756   92.3780   15.8819 C.ar    1  UNL1        0.0060
     14 C          67.4027   93.0180   16.1630 C.ar    1  UNL1        0.0208
     15 C          68.4732   93.0174   15.1122 C.ar    1  UNL1        0.0989
     16 N          68.2166   92.3768   13.7804 N.ar    1  UNL1       -0.2422
     17 C          66.8894   91.7368   13.4994 C.ar    1  UNL1        0.1017
@<TRIPOS>BOND
     1     1     2    1
     2     2     3    1
     3     2    10    1
     4    10    11    2
     5    10    12    1
     6    12    13   ar
     7    13    14   ar
     8    14    15   ar
     9    15    16   ar
    10    16    17   ar
    11     2     4    1
    12     4     5   ar
    13     5     6   ar
    14     6     7   ar
    15     7     8   ar
    16     8     9   ar
    17    17    12   ar
    18     9     4   ar
@<TRIPOS>MOLECULE
*****
 17 18 0 0 0
SMALL
GASTEIGER

@<TRIPOS>ATOM
      1 C          61.3804   85.9807   11.1481 C.3     1  UNL1        0.0122
      2 C          62.1579   85.6955    9.8974 C.3     1  UNL1        0.0758
      3 C          62.9353   85.4102    8.6468 C.3     1  UNL1        0.0122
      4 C          62.9009   84.6034   10.6084 C.ar    1  UNL1        0.0033
      5 C          63.7333   83.6308    9.8268 C.ar    1  UNL1       -0.0007
      6 C          64.4763   82.5388   10.5378 C.ar    1  UNL1        0.0204
      7 C          64.3868   82.4194   12.0303 C.ar    1  UNL1        0.0989
      8 N          63.5544   83.3921   12.8119 N.ar    1  UNL1       -0.2426
      9 C          62.8114   84.4841   12.1010 C.ar    1  UNL1        0.0950
     10 C          61.4149   86.7875    9.1865 C.2     1  UNL1        0.1775
     11 O          60.7087   86.4967    7.8955 O.2     1  UNL1       -0.2910
     12 C          61.3780   88.1703    9.7666 C.ar    1  UNL1        0.0541
     13 C          60.0685   88.8864    9.9158 C.ar    1  UNL1        0.0060
     14 C          60.0317   90.2692   10.4959 C.ar    1  UNL1        0.0208
     15 C          61.3045   90.9359   10.9267 C.ar    1  UNL1        0.0989
     16 N          62.6140   90.2198   10.7774 N.ar    1  UNL1       -0.2422
     17 C          62.6508   88.8371   10.1974 C.ar    1  UNL1        0.1017
@<TRIPOS>BOND
     1     1     2    1
     2     2     3    1
     3     2    10    1
     4    10    11    2
     5    10    12    1
     6    12    13   ar
     7    13    14   ar
     8    14    15   ar
     9    15    16   ar
    10    16    17   ar
    11     2     4    1
    12     4     5   ar
    13     5     6   ar
    14     6     7   ar
    15     7     8   ar
    16     8     9   ar
    17    17    12   ar
    18     9     4   ar
@<TRIPOS>MOLECULE
*****
 17 18 0 0 0
SMALL
GASTEIGER

@<TRIPOS>ATOM
      1 C          62.7395   88.1519   11.4776 C.3     1  UNL1        0.0122
      2 C          61.7295   89.2515   11.3337 C.3     1  UNL1        0.0758
      3 C          60.7196   90.3512   11.1899 C.3     1  UNL1        0.0122
      4 C          61.0869   88.5126   10.1974 C.ar    1  UNL1        0.0033
      5 C          61.2418   87.0247   10.0874 C.ar    1  UNL1       -0.0007
      6 C          60.5992   86.2858    8.9512 C.ar    1  UNL1        0.0204
      7 C          59.8017   87.0348    7.9250 C.ar    1  UNL1        0.0989
      8 N          59.6469   88.5227    8.0351 N.ar    1  UNL1       -0.2426
      9 C          60.2895   89.2616    9.1713 C.ar    1  UNL1        0.0950
     10 C          62.3722   89.9904   12.4700 C.2     1  UNL1        0.1775
     11 O          61.9019   89.7603   13.8756 O.2     1  UNL1       -0.2910
     12 C          63.4851   90.9594   12.2006 C.ar    1  UNL1        0.0541
     13 C          63.7719   91.4004   10.7959 C.ar    1  UNL1        0.0060
     14 C          64.8848   92.3694   10.5265 C.ar    1  UNL1        0.0208
     15 C          65.7109   92.8972   11.6619 C.ar    1  UNL1        0.0989
     16 N          65.4241   92.4562   13.0665 N.ar    1  UNL1       -0.2422
     17 C          64.3112   91.4873   13.3359 C.ar    1  UNL1        0.1017
@<TRIPOS>BOND
     1     1     2    1
     2     2     3    1
     3     2    10    1
     4    10    11    2
     5    10    12    1
     6    12    13   ar
     7    13    14   ar
     8    14    15   ar
     9    15    16   ar
    10    16    17   ar
    11     2     4    1
    12     4     5   ar
    13     5     6   ar
    14     6     7   ar
    15     7     8   ar
    16     8     9   ar
    17    17    12   ar
    18     9     4   ar
@<TRIPOS>MOLECULE
*****
 17 18 0 0 0
SMALL
GASTEIGER

@<TRIPOS>ATOM
      1 C          62.8531   89.7723   13.0369 C.3     1  UNL1        0.0122
      2 C          62.5801   90.2970   11.6585 C.3     1  UNL1        0.0758
      3 C          62.3072   90.8217   10.2800 C.3     1  UNL1        0.0122
      4 C          63.7913   91.1769   11.7536 C.ar    1  UNL1        0.0033
      5 C          64.2627   91.9368   10.5493 C.ar    1  UNL1       -0.0007
      6 C          65.4738   92.8166   10.6444 C.ar    1  UNL1        0.0204
      7 C          66.2135   92.9365   11.9438 C.ar    1  UNL1        0.0989
      8 N          65.7421   92.1766   13.1481 N.ar    1  UNL1       -0.2426
      9 C          64.5310   91.2968   13.0530 C.ar    1  UNL1        0.0950
     10 C          61.3690   89.4172   11.5634 C.2     1  UNL1        0.1775
     11 O          60.2359   89.5938   12.5302 O.2     1  UNL1       -0.2910
     12 C          61.2911   88.3606   10.5014 C.ar    1  UNL1        0.0541
     13 C          62.3572   87.3096   10.4095 C.ar    1  UNL1        0.0060
     14 C          62.2792   86.2531    9.3475 C.ar    1  UNL1        0.0208
     15 C          61.1350   86.2476    8.3776 C.ar    1  UNL1        0.0989
     16 N          60.0688   87.2986    8.4696 N.ar    1  UNL1       -0.2422
     17 C          60.1468   88.3551    9.5315 C.ar    1  UNL1        0.1017
@<TRIPOS>BOND
     1     1     2    1
     2     2     3    1
     3     2    10    1
     4    10    11    2
     5    10    12    1
     6    12    13   ar
     7    13    14   ar
     8    14    15   ar
     9    15    16   ar
    10    16    17   ar
    11     2     4    1
    12     4     5   ar
    13     5     6   ar
    14     6     7   ar
    15     7     8   ar
    16     8     9   ar
    17    17    12   ar
    18     9     4   ar
@<TRIPOS>MOLECULE
*****
 17 18 0 0 0
SMALL
GASTEIGER

@<TRIPOS>ATOM
      1 C          61.6419   85.6806   11.1672 C.3     1  UNL1        0.0122
      2 C          62.6913   84.7788   10.5881 C.3     1  UNL1        0.0758
      3 C          63.7407   83.8770   10.0090 C.3     1  UNL1        0.0122
      4 C          62.8605   84.1179   11.9241 C.ar    1  UNL1        0.0033
      5 C          62.6281   82.6429   12.0660 C.ar    1  UNL1       -0.0007
      6 C          62.7973   81.9820   13.4018 C.ar    1  UNL1        0.0204
      7 C          63.1990   82.7962   14.5958 C.ar    1  UNL1        0.0989
      8 N          63.4314   84.2713   14.4539 N.ar    1  UNL1       -0.2426
      9 C          63.2622   84.9322   13.1181 C.ar    1  UNL1        0.0950
     10 C          62.5220   85.4396    9.2523 C.2     1  UNL1        0.1775
     11 O          63.1666   84.8461    8.0348 O.2     1  UNL1       -0.2910
     12 C          61.7081   86.6941    9.1338 C.ar    1  UNL1        0.0541
     13 C          60.4243   86.6848    8.3582 C.ar    1  UNL1        0.0060
     14 C          59.6105   87.9392    8.2398 C.ar    1  UNL1        0.0208
     15 C          60.0806   89.2030    8.8969 C.ar    1  UNL1        0.0989
     16 N          61.3645   89.2124    9.6725 N.ar    1  UNL1       -0.2422
     17 C          62.1782   87.9579    9.7909 C.ar    1  UNL1        0.1017
@<TRIPOS>BOND
     1     1     2    1
     2     2     3    1
     3     2    10    1
     4    10    11    2
     5    10    12    1
     6    12    13   ar
     7    13    14   ar
     8    14    15   ar
     9    15    16   ar
    10    16    17   ar
    11     2     4    1
    12     4     5   ar
    13     5     6   ar
    14     6     7   ar
    15     7     8   ar
    16     8     9   ar
    17    17    12   ar
    18     9     4   ar
@<TRIPOS>MOLECULE
*****
 17 18 0 0 0
SMALL
GASTEIGER

@<TRIPOS>ATOM
      1 C          61.7937   85.5961   11.4613 C.3     1  UNL1        0.0122
      2 C          62.4178   85.4122   10.1098 C.3     1  UNL1        0.0758
      3 C          63.0419   85.2284    8.7583 C.3     1  UNL1        0.0122
      4 C          61.6271   86.5747    9.5866 C.ar    1  UNL1        0.0033
      5 C          61.9697   87.9698   10.0183 C.ar    1  UNL1       -0.0007
      6 C          61.1791   89.1322    9.4952 C.ar    1  UNL1        0.0204
      7 C          60.0460   88.8995    8.5403 C.ar    1  UNL1        0.0989
      8 N          59.7034   87.5044    8.1086 N.ar    1  UNL1       -0.2426
      9 C          60.4940   86.3420    8.6317 C.ar    1  UNL1        0.0950
     10 C          63.2084   84.2499   10.6330 C.2     1  UNL1        0.1775
     11 O          64.0853   83.4613    9.7062 O.2     1  UNL1       -0.2910
     12 C          63.1220   83.8760   12.0832 C.ar    1  UNL1        0.0541
     13 C          62.4400   82.6036   12.4903 C.ar    1  UNL1        0.0060
     14 C          62.3537   82.2298   13.9404 C.ar    1  UNL1        0.0208
     15 C          62.9494   83.1284   14.9833 C.ar    1  UNL1        0.0989
     16 N          63.6313   84.4008   14.5762 N.ar    1  UNL1       -0.2422
     17 C          63.7176   84.7746   13.1261 C.ar    1  UNL1        0.1017
@<TRIPOS>BOND
     1     1     2    1
     2     2     3    1
     3     2    10    1
     4    10    11    2
     5    10    12    1
     6    12    13   ar
     7    13    14   ar
     8    14    15   ar
     9    15    16   ar
    10    16    17   ar
    11     2     4    1
    12     4     5   ar
    13     5     6   ar
    14     6     7   ar
    15     7     8   ar
    16     8     9   ar
    17    17    12   ar
    18     9     4   ar
