@<TRIPOS>MOLECULE
*****
 54 57 0 0 0
SMALL
GASTEIGER

@<TRIPOS>ATOM
      1 C          62.1480   87.7833   11.0449 C.3     1  UNL1        0.1041
      2 C          60.7362   86.8134    9.0913 C.2     1  UNL1        0.2405
      3 O          59.5587   86.6764   10.0103 O.2     1  UNL1       -0.2733
      4 N          62.0309   87.3669    9.6087 N.am    1  UNL1       -0.3019
      5 H          62.8038   87.4569    9.0055 H       1  UNL1        0.1495
      6 C          60.6192   86.3970    7.6551 C.3     1  UNL1        0.1510
      7 C          59.4028   88.5800    6.9444 C.2     1  UNL1        0.4023
      8 O          60.0725   89.3181    8.0654 O.2     1  UNL1       -0.2264
      9 N          59.6761   87.1194    6.7392 N.am    1  UNL1       -0.2640
     10 H          59.2365   86.6350    6.0034 H       1  UNL1        0.1532
     11 O          58.4597   89.3024    6.0286 O.3     1  UNL1       -0.4280
     12 C          58.5413   90.7940    5.8927 C.3     1  UNL1        0.2561
     13 C          61.4157   91.9041    3.5323 C.ar    1  UNL1        0.0876
     14 N          60.8938   91.0500    4.6494 N.ar    1  UNL1       -0.2433
     15 C          59.4533   91.4052    4.8705 C.ar    1  UNL1        0.1094
     16 C          59.0849   92.4789    3.8900 C.ar    1  UNL1        0.0549
     17 S          60.2977   92.7873    3.0629 S.2     1  UNL1       -0.0705
     18 C          63.3216   93.0410    2.1814 C.3     1  UNL1        0.0069
     19 C          62.8106   91.8795    2.9812 C.3     1  UNL1        0.0465
     20 C          63.6944   90.6933    3.2300 C.3     1  UNL1        0.0069
     21 C          61.4452   85.2583    7.1346 C.3     1  UNL1        0.0270
     22 C          60.8888   84.3490    6.0793 C.3     1  UNL1        0.0022
     23 C          62.8277   85.0287    7.6695 C.3     1  UNL1        0.0022
     24 C          61.3770   88.9678   11.5476 C.3     1  UNL1        0.1445
     25 O          60.0461   89.3072   10.9446 O.3     1  UNL1       -0.3813
     26 H          59.8335   88.6660   10.2485 H       1  UNL1        0.2105
     27 C          61.9368   89.8128   12.6532 C.3     1  UNL1        0.1038
     28 N          63.1675   90.6372   12.4173 N.3     1  UNL1       -0.2620
     29 C          63.3952   91.2797   11.0811 C.3     1  UNL1        0.0901
     30 C          64.6260   92.1042   10.8453 C.3     1  UNL1        0.0900
     31 N          65.6290   92.2861   11.9456 N.3     1  UNL1       -0.2657
     32 C          65.4014   91.6436   13.2818 C.3     1  UNL1        0.0980
     33 C          64.1707   90.8192   13.5177 C.3     1  UNL1        0.1510
     34 C          63.9430   90.1767   14.8539 C.2     1  UNL1        0.2383
     35 O          64.0749   90.9883   16.1085 O.2     1  UNL1       -0.2736
     36 N          63.5835   88.7228   14.9355 N.am    1  UNL1       -0.3063
     37 H          63.4970   88.1901   14.1120 H       1  UNL1        0.1493
     38 C          63.3559   88.0803   16.2717 C.3     1  UNL1        0.0569
     39 C          62.6788   89.3280   16.7562 C.3     1  UNL1        0.0196
     40 C          64.0330   86.8326   15.7871 C.3     1  UNL1        0.0196
     41 C          63.1282   87.4378   17.6079 C.3     1  UNL1        0.0196
     42 C          66.8597   93.1105   11.7097 C.3     1  UNL1        0.1074
     43 C          66.8708   94.1490   10.6274 C.ar    1  UNL1        0.0440
     44 C          66.2015   95.4902   10.6856 C.ar    1  UNL1        0.1030
     45 N          66.4701   96.1987    9.3910 N.ar    1  UNL1       -0.2350
     46 C          67.3054   95.2954    8.5328 C.ar    1  UNL1        0.1343
     47 S          67.5530   94.0287    9.2970 S.2     1  UNL1       -0.0674
     48 C          63.0359   87.0153   11.9785 C.3     1  UNL1        0.0484
     49 C          62.9007   85.5253   12.0864 C.ar    1  UNL1       -0.0204
     50 C          62.5468   84.8976   13.4020 C.ar    1  UNL1       -0.0042
     51 C          62.4116   83.4077   13.5099 C.ar    1  UNL1       -0.0003
     52 C          62.6303   82.5454   12.3022 C.ar    1  UNL1       -0.0000
     53 C          62.9842   83.1730   10.9866 C.ar    1  UNL1       -0.0003
     54 C          63.1194   84.6629   10.8787 C.ar    1  UNL1       -0.0042
@<TRIPOS>BOND
     1    18    19    1
     2    19    20    1
     3    19    13    1
     4    13    14   ar
     5    14    15   ar
     6    15    12    1
     7    12    11    1
     8    11     7    1
     9     7     8    2
    10     7     9   am
    11     6     9    1
    12     6     2    1
    13     2     3    2
    14     2     4   am
    15     4     1    1
    16     1    48    1
    17    48    49    1
    18    49    50   ar
    19    50    51   ar
    20    51    52   ar
    21    52    53   ar
    22    53    54   ar
    23     1    24    1
    24    24    25    1
    25    24    27    1
    26    27    28    1
    27    28    29    1
    28    29    30    1
    29    30    31    1
    30    31    42    1
    31    42    43    1
    32    43    44   ar
    33    44    45   ar
    34    45    46   ar
    35    46    47   ar
    36    31    32    1
    37    32    33    1
    38    33    34    1
    39    34    35    2
    40    34    36   am
    41    36    38    1
    42    38    39    1
    43    38    40    1
    44    38    41    1
    45     6    21    1
    46    21    22    1
    47    21    23    1
    48    15    16   ar
    49    16    17   ar
    50    17    13   ar
    51    54    49   ar
    52    33    28    1
    53    47    43   ar
    54     9    10    1
    55     4     5    1
    56    25    26    1
    57    36    37    1
@<TRIPOS>MOLECULE
*****
 54 57 0 0 0
SMALL
GASTEIGER

@<TRIPOS>ATOM
      1 C          60.2746   89.0538    9.3250 C.3     1  UNL1        0.1041
      2 C          59.0948   89.4449    7.0435 C.2     1  UNL1        0.2405
      3 O          58.1866   88.2822    7.3138 O.2     1  UNL1       -0.2733
      4 N          60.1389   89.8308    8.0491 N.am    1  UNL1       -0.3019
      5 H          60.7350   90.5939    7.8716 H       1  UNL1        0.1495
      6 C          58.9591   90.2218    5.7675 C.3     1  UNL1        0.1510
      7 C          60.4561   91.8068    4.3544 C.2     1  UNL1        0.4023
      8 O          59.5585   92.9591    4.6960 O.2     1  UNL1       -0.2264
      9 N          60.1564   90.4381    4.8902 N.am    1  UNL1       -0.2640
     10 H          60.7455   89.6819    4.6660 H       1  UNL1        0.1532
     11 O          61.6534   92.0231    3.4771 O.3     1  UNL1       -0.4280
     12 C          61.6754   93.1669    2.5069 C.3     1  UNL1        0.2561
     13 C          59.0076   93.2331   -0.3116 C.ar    1  UNL1        0.0876
     14 N          59.4086   93.4461    1.1180 N.ar    1  UNL1       -0.2433
     15 C          60.8620   93.0986    1.2484 C.ar    1  UNL1        0.1094
     16 C          61.3592   92.6710   -0.1006 C.ar    1  UNL1        0.0549
     17 S          60.2131   92.7541   -1.0648 S.2     1  UNL1       -0.0705
     18 C          56.8134   92.2917   -1.3361 C.3     1  UNL1        0.0069
     19 C          57.6410   93.4594   -0.8871 C.3     1  UNL1        0.0465
     20 C          57.1019   94.8535   -1.0134 C.3     1  UNL1        0.0069
     21 C          57.6261   90.7824    5.3690 C.3     1  UNL1        0.0270
     22 C          56.3640   90.1313    5.8517 C.3     1  UNL1        0.0022
     23 C          57.5553   91.9941    4.4876 C.3     1  UNL1        0.0022
     24 C          60.7090   89.7468   10.5825 C.3     1  UNL1        0.1445
     25 O          59.8416   90.8080   11.1919 O.3     1  UNL1       -0.3813
     26 H          59.0435   90.9224   10.6526 H       1  UNL1        0.2105
     27 C          62.0107   89.3786   11.2304 C.3     1  UNL1        0.1038
     28 N          63.0546   90.4295   11.4665 N.3     1  UNL1       -0.2620
     29 C          63.5378   91.2762   10.3265 C.3     1  UNL1        0.0901
     30 C          64.5817   92.3272   10.5627 C.3     1  UNL1        0.0900
     31 N          65.1425   92.5314   11.9389 N.3     1  UNL1       -0.2657
     32 C          64.6593   91.6847   13.0789 C.3     1  UNL1        0.0980
     33 C          63.6154   90.6337   12.8427 C.3     1  UNL1        0.1510
     34 C          63.1322   89.7870   13.9827 C.2     1  UNL1        0.2383
     35 O          61.6702   89.7400   14.3149 O.2     1  UNL1       -0.2736
     36 N          64.1110   88.9874   14.7905 N.am    1  UNL1       -0.3063
     37 H          65.0706   89.0183   14.5724 H       1  UNL1        0.1493
     38 C          63.6278   88.1407   15.9305 C.3     1  UNL1        0.0569
     39 C          63.2183   89.3768   16.6750 C.3     1  UNL1        0.0196
     40 C          64.0374   86.9046   15.1860 C.3     1  UNL1        0.0196
     41 C          63.1447   87.2940   17.0705 C.3     1  UNL1        0.0196
     42 C          66.1863   93.5823   12.1750 C.3     1  UNL1        0.1074
     43 C          66.5809   94.5104   11.0646 C.ar    1  UNL1        0.0440
     44 C          67.4549   94.1651    9.8954 C.ar    1  UNL1        0.1030
     45 N          67.5848   95.3881    9.0367 N.ar    1  UNL1       -0.2350
     46 C          66.7911   96.4893    9.6751 C.ar    1  UNL1        0.1343
     47 S          66.1707   95.9468   10.9284 S.2     1  UNL1       -0.0674
     48 C          59.9759   87.5840    9.3435 C.3     1  UNL1        0.0484
     49 C          60.8881   86.6244    8.6384 C.ar    1  UNL1       -0.0204
     50 C          62.2877   86.4165    9.1363 C.ar    1  UNL1       -0.0042
     51 C          63.1998   85.4570    8.4312 C.ar    1  UNL1       -0.0003
     52 C          62.7123   84.7052    7.2282 C.ar    1  UNL1       -0.0000
     53 C          61.3128   84.9130    6.7303 C.ar    1  UNL1       -0.0003
     54 C          60.4007   85.8726    7.4354 C.ar    1  UNL1       -0.0042
@<TRIPOS>BOND
     1    18    19    1
     2    19    20    1
     3    19    13    1
     4    13    14   ar
     5    14    15   ar
     6    15    12    1
     7    12    11    1
     8    11     7    1
     9     7     8    2
    10     7     9   am
    11     6     9    1
    12     6     2    1
    13     2     3    2
    14     2     4   am
    15     4     1    1
    16     1    48    1
    17    48    49    1
    18    49    50   ar
    19    50    51   ar
    20    51    52   ar
    21    52    53   ar
    22    53    54   ar
    23     1    24    1
    24    24    25    1
    25    24    27    1
    26    27    28    1
    27    28    29    1
    28    29    30    1
    29    30    31    1
    30    31    42    1
    31    42    43    1
    32    43    44   ar
    33    44    45   ar
    34    45    46   ar
    35    46    47   ar
    36    31    32    1
    37    32    33    1
    38    33    34    1
    39    34    35    2
    40    34    36   am
    41    36    38    1
    42    38    39    1
    43    38    40    1
    44    38    41    1
    45     6    21    1
    46    21    22    1
    47    21    23    1
    48    15    16   ar
    49    16    17   ar
    50    17    13   ar
    51    54    49   ar
    52    33    28    1
    53    47    43   ar
    54     9    10    1
    55     4     5    1
    56    25    26    1
    57    36    37    1
@<TRIPOS>MOLECULE
*****
 54 57 0 0 0
SMALL
GASTEIGER

@<TRIPOS>ATOM
      1 C          63.4702   85.9799   13.5912 C.3     1  UNL1        0.1041
      2 C          62.3027   86.1753   11.2784 C.2     1  UNL1        0.2405
      3 O          60.9660   86.2239   11.9572 O.2     1  UNL1       -0.2733
      4 N          63.5549   86.0533   12.0954 N.am    1  UNL1       -0.3019
      5 H          64.4322   86.0214   11.6499 H       1  UNL1        0.1495
      6 C          62.3874   86.2487    9.7826 C.3     1  UNL1        0.1510
      7 C          60.5615   87.7845    8.7541 C.2     1  UNL1        0.4023
      8 O          59.5062   86.7944    9.1494 O.2     1  UNL1       -0.2264
      9 N          62.0021   87.5116    9.0706 N.am    1  UNL1       -0.2640
     10 H          62.6948   88.1613    8.8112 H       1  UNL1        0.1532
     11 O          60.1762   89.0472    8.0422 O.3     1  UNL1       -0.4280
     12 C          59.2716   88.9884    6.8471 C.3     1  UNL1        0.2561
     13 C          59.9448   91.7527    4.2068 C.ar    1  UNL1        0.0876
     14 N          60.4133   90.6028    5.0483 N.ar    1  UNL1       -0.2433
     15 C          59.2508   90.1226    5.8657 C.ar    1  UNL1        0.1094
     16 C          58.0638   90.9758    5.5293 C.ar    1  UNL1        0.0549
     17 S          58.4927   91.9832    4.5041 S.2     1  UNL1       -0.0705
     18 C          62.2043   92.1346    2.9826 C.3     1  UNL1        0.0069
     19 C          60.7814   92.5348    3.2381 C.3     1  UNL1        0.0465
     20 C          60.1952   93.7171    2.5250 C.3     1  UNL1        0.0069
     21 C          62.8574   85.0594    8.9987 C.3     1  UNL1        0.0270
     22 C          63.5549   83.9293    9.6962 C.3     1  UNL1        0.0022
     23 C          62.6299   85.0000    7.5173 C.3     1  UNL1        0.0022
     24 C          64.2140   86.9730   14.4342 C.3     1  UNL1        0.1445
     25 O          65.5738   86.6337   14.9686 O.3     1  UNL1       -0.3813
     26 H          65.8220   85.7420   14.6784 H       1  UNL1        0.2105
     27 C          63.5979   88.3054   14.7427 C.3     1  UNL1        0.1038
     28 N          64.2761   89.5666   14.2965 N.3     1  UNL1       -0.2620
     29 C          65.5133   90.0418   14.9990 C.3     1  UNL1        0.0901
     30 C          66.1916   91.3031   14.5528 C.3     1  UNL1        0.0900
     31 N          65.6327   92.0892   13.4041 N.3     1  UNL1       -0.2657
     32 C          64.3955   91.6141   12.7015 C.3     1  UNL1        0.0980
     33 C          63.7172   90.3528   13.1477 C.3     1  UNL1        0.1510
     34 C          62.4800   89.8776   12.4452 C.2     1  UNL1        0.2383
     35 O          62.5940   89.1193   11.1560 O.2     1  UNL1       -0.2736
     36 N          61.1288   90.1608   13.0317 N.am    1  UNL1       -0.3063
     37 H          61.0540   90.6585   13.8779 H       1  UNL1        0.1493
     38 C          59.8916   89.6857   12.3292 C.3     1  UNL1        0.0569
     39 C          59.5325   88.8535   13.5244 C.3     1  UNL1        0.0196
     40 C          60.2507   90.5178   11.1340 C.3     1  UNL1        0.0196
     41 C          58.6544   89.2105   11.6267 C.3     1  UNL1        0.0196
     42 C          66.3109   93.3505   12.9579 C.3     1  UNL1        0.1074
     43 C          66.7076   93.5210   11.5214 C.ar    1  UNL1        0.0440
     44 C          67.3713   92.4866   10.6612 C.ar    1  UNL1        0.1030
     45 N          67.5841   93.0821    9.3010 N.ar    1  UNL1       -0.2350
     46 C          67.0520   94.4844    9.3205 C.ar    1  UNL1        0.1343
     47 S          66.5103   94.7556   10.6927 S.2     1  UNL1       -0.0674
     48 C          62.6418   84.9134   14.2440 C.3     1  UNL1        0.0484
     49 C          62.8342   83.4755   13.8625 C.ar    1  UNL1       -0.0204
     50 C          64.0639   83.0566   13.1126 C.ar    1  UNL1       -0.0042
     51 C          64.2562   81.6187   12.7312 C.ar    1  UNL1       -0.0003
     52 C          63.2189   80.5998   13.0995 C.ar    1  UNL1       -0.0000
     53 C          61.9892   81.0187   13.8494 C.ar    1  UNL1       -0.0003
     54 C          61.7968   82.4565   14.2309 C.ar    1  UNL1       -0.0042
@<TRIPOS>BOND
     1    18    19    1
     2    19    20    1
     3    19    13    1
     4    13    14   ar
     5    14    15   ar
     6    15    12    1
     7    12    11    1
     8    11     7    1
     9     7     8    2
    10     7     9   am
    11     6     9    1
    12     6     2    1
    13     2     3    2
    14     2     4   am
    15     4     1    1
    16     1    48    1
    17    48    49    1
    18    49    50   ar
    19    50    51   ar
    20    51    52   ar
    21    52    53   ar
    22    53    54   ar
    23     1    24    1
    24    24    25    1
    25    24    27    1
    26    27    28    1
    27    28    29    1
    28    29    30    1
    29    30    31    1
    30    31    42    1
    31    42    43    1
    32    43    44   ar
    33    44    45   ar
    34    45    46   ar
    35    46    47   ar
    36    31    32    1
    37    32    33    1
    38    33    34    1
    39    34    35    2
    40    34    36   am
    41    36    38    1
    42    38    39    1
    43    38    40    1
    44    38    41    1
    45     6    21    1
    46    21    22    1
    47    21    23    1
    48    15    16   ar
    49    16    17   ar
    50    17    13   ar
    51    54    49   ar
    52    33    28    1
    53    47    43   ar
    54     9    10    1
    55     4     5    1
    56    25    26    1
    57    36    37    1
@<TRIPOS>MOLECULE
*****
 54 57 0 0 0
SMALL
GASTEIGER

@<TRIPOS>ATOM
      1 C          60.2278   88.9847    9.3560 C.3     1  UNL1        0.1041
      2 C          59.4878   89.7354    6.9814 C.2     1  UNL1        0.2405
      3 O          58.4191   88.6829    6.9816 O.2     1  UNL1       -0.2733
      4 N          60.3922   89.8864    8.1686 N.am    1  UNL1       -0.3019
      5 H          61.0936   90.5772    8.1684 H       1  UNL1        0.1495
      6 C          59.6522   90.6370    5.7939 C.3     1  UNL1        0.1510
      7 C          61.1110   91.5355    3.8408 C.2     1  UNL1        0.4023
      8 O          59.9249   92.2737    3.2945 O.2     1  UNL1       -0.2264
      9 N          60.9747   90.7172    5.0905 N.am    1  UNL1       -0.2640
     10 H          61.7531   90.2327    5.4490 H       1  UNL1        0.1532
     11 O          62.4334   91.6157    3.1373 O.3     1  UNL1       -0.4280
     12 C          62.8709   92.9048    2.5075 C.3     1  UNL1        0.2561
     13 C          63.1617   93.6400   -1.2926 C.ar    1  UNL1        0.0876
     14 N          63.7670   93.5677    0.0779 N.ar    1  UNL1       -0.2433
     15 C          62.7020   93.1138    1.0317 C.ar    1  UNL1        0.1094
     16 C          61.4384   92.9057    0.2507 C.ar    1  UNL1        0.0549
     17 S          61.7224   93.2309   -1.1858 S.2     1  UNL1       -0.0705
     18 C          63.8785   93.1350   -3.7383 C.3     1  UNL1        0.0069
     19 C          63.8709   94.0495   -2.5493 C.3     1  UNL1        0.0465
     20 C          64.5726   95.3736   -2.6170 C.3     1  UNL1        0.0069
     21 C          58.4943   91.4585    5.3099 C.3     1  UNL1        0.0270
     22 C          57.1674   90.8072    5.0546 C.3     1  UNL1        0.0022
     23 C          58.6632   92.9313    5.0812 C.3     1  UNL1        0.0022
     24 C          60.4576   89.5171   10.7395 C.3     1  UNL1        0.1445
     25 O          59.4238   90.3883   11.3892 O.3     1  UNL1       -0.3813
     26 H          58.6752   90.5079   10.7841 H       1  UNL1        0.2105
     27 C          61.7213   89.1783   11.4731 C.3     1  UNL1        0.1038
     28 N          62.8038   90.2066   11.6168 N.3     1  UNL1       -0.2620
     29 C          63.2479   90.9998   10.4236 C.3     1  UNL1        0.0901
     30 C          64.3305   92.0282   10.5673 C.3     1  UNL1        0.0900
     31 N          64.9689   92.2633   11.9041 N.3     1  UNL1       -0.2657
     32 C          64.5248   91.4701   13.0973 C.3     1  UNL1        0.0980
     33 C          63.4423   90.4418   12.9536 C.3     1  UNL1        0.1510
     34 C          62.9982   89.6486   14.1468 C.2     1  UNL1        0.2383
     35 O          61.5731   89.7236   14.6091 O.2     1  UNL1       -0.2736
     36 N          63.9790   88.7805   14.8776 N.am    1  UNL1       -0.3063
     37 H          64.9143   88.7312   14.5742 H       1  UNL1        0.1493
     38 C          63.5349   87.9873   16.0708 C.3     1  UNL1        0.0569
     39 C          63.9032   86.7169   15.3633 C.3     1  UNL1        0.0196
     40 C          63.1666   89.2577   16.7782 C.3     1  UNL1        0.0196
     41 C          63.0908   87.1941   17.2639 C.3     1  UNL1        0.0196
     42 C          66.0514   93.2916   12.0478 C.3     1  UNL1        0.1074
     43 C          66.5160   94.0640   10.8488 C.ar    1  UNL1        0.0440
     44 C          67.4065   93.5471    9.7579 C.ar    1  UNL1        0.1030
     45 N          67.6126   94.6526    8.7651 N.ar    1  UNL1       -0.2350
     46 C          66.8496   95.8526    9.2424 C.ar    1  UNL1        0.1343
     47 S          66.1719   95.4888   10.5302 S.2     1  UNL1       -0.0674
     48 C          59.8335   87.5508    9.1601 C.3     1  UNL1        0.0484
     49 C          60.7947   86.5884    8.5277 C.ar    1  UNL1       -0.0204
     50 C          62.1613   86.3978    9.1159 C.ar    1  UNL1       -0.0042
     51 C          63.1224   85.4353    8.4835 C.ar    1  UNL1       -0.0003
     52 C          62.7169   84.6635    7.2629 C.ar    1  UNL1       -0.0000
     53 C          61.3503   84.8542    6.6747 C.ar    1  UNL1       -0.0003
     54 C          60.3892   85.8166    7.3071 C.ar    1  UNL1       -0.0042
@<TRIPOS>BOND
     1    18    19    1
     2    19    20    1
     3    19    13    1
     4    13    14   ar
     5    14    15   ar
     6    15    12    1
     7    12    11    1
     8    11     7    1
     9     7     8    2
    10     7     9   am
    11     6     9    1
    12     6     2    1
    13     2     3    2
    14     2     4   am
    15     4     1    1
    16     1    48    1
    17    48    49    1
    18    49    50   ar
    19    50    51   ar
    20    51    52   ar
    21    52    53   ar
    22    53    54   ar
    23     1    24    1
    24    24    25    1
    25    24    27    1
    26    27    28    1
    27    28    29    1
    28    29    30    1
    29    30    31    1
    30    31    42    1
    31    42    43    1
    32    43    44   ar
    33    44    45   ar
    34    45    46   ar
    35    46    47   ar
    36    31    32    1
    37    32    33    1
    38    33    34    1
    39    34    35    2
    40    34    36   am
    41    36    38    1
    42    38    39    1
    43    38    40    1
    44    38    41    1
    45     6    21    1
    46    21    22    1
    47    21    23    1
    48    15    16   ar
    49    16    17   ar
    50    17    13   ar
    51    54    49   ar
    52    33    28    1
    53    47    43   ar
    54     9    10    1
    55     4     5    1
    56    25    26    1
    57    36    37    1
@<TRIPOS>MOLECULE
*****
 54 57 0 0 0
SMALL
GASTEIGER

@<TRIPOS>ATOM
      1 C          62.1638   87.8016   11.2099 C.3     1  UNL1        0.1041
      2 C          60.7201   86.9346    9.2314 C.2     1  UNL1        0.2405
      3 O          59.5055   86.9490   10.1114 O.2     1  UNL1       -0.2733
      4 N          62.0493   87.3609    9.7807 N.am    1  UNL1       -0.3019
      5 H          62.8465   87.3515    9.2031 H       1  UNL1        0.1495
      6 C          60.6057   86.4939    7.8022 C.3     1  UNL1        0.1510
      7 C          59.4277   88.6673    7.0029 C.2     1  UNL1        0.4023
      8 O          60.1580   89.4496    8.0540 O.2     1  UNL1       -0.2264
      9 N          59.6515   87.1894    6.8770 N.am    1  UNL1       -0.2640
     10 H          59.1722   86.6760    6.1872 H       1  UNL1        0.1532
     11 O          58.4736   89.3628    6.0778 O.3     1  UNL1       -0.4280
     12 C          58.5485   90.8507    5.9032 C.3     1  UNL1        0.2561
     13 C          61.4337   91.8971    3.5269 C.ar    1  UNL1        0.0876
     14 N          60.9012   91.0593    4.6514 N.ar    1  UNL1       -0.2433
     15 C          59.4674   91.4398    4.8742 C.ar    1  UNL1        0.1094
     16 C          59.1139   92.5128    3.8874 C.ar    1  UNL1        0.0549
     17 S          60.3291   92.7954    3.0547 S.2     1  UNL1       -0.0705
     18 C          63.7014   90.6596    3.2506 C.3     1  UNL1        0.0069
     19 C          62.8264   91.8457    2.9720 C.3     1  UNL1        0.0465
     20 C          63.3440   92.9803    2.1386 C.3     1  UNL1        0.0069
     21 C          61.4453   85.3577    7.2982 C.3     1  UNL1        0.0270
     22 C          62.8400   85.1681    7.8167 C.3     1  UNL1        0.0022
     23 C          60.8902   84.4111    6.2756 C.3     1  UNL1        0.0022
     24 C          61.3992   89.0001   11.6887 C.3     1  UNL1        0.1445
     25 O          60.1781   89.4562   10.9466 O.3     1  UNL1       -0.3813
     26 H          60.0233   88.8715   10.1883 H       1  UNL1        0.2105
     27 C          61.8557   89.7422   12.9097 C.3     1  UNL1        0.1038
     28 N          63.1681   90.4684   12.8989 N.3     1  UNL1       -0.2620
     29 C          63.5876   91.2415   11.6838 C.3     1  UNL1        0.0901
     30 C          64.9001   91.9677   11.6731 C.3     1  UNL1        0.0900
     31 N          65.7931   91.9207   12.8774 N.3     1  UNL1       -0.2657
     32 C          65.3736   91.1476   14.0924 C.3     1  UNL1        0.0980
     33 C          64.0612   90.4215   14.1032 C.3     1  UNL1        0.1510
     34 C          63.6417   89.6484   15.3183 C.2     1  UNL1        0.2383
     35 O          63.1226   90.3719   16.5253 O.2     1  UNL1       -0.2736
     36 N          63.7414   88.1517   15.3263 N.am    1  UNL1       -0.3063
     37 H          64.0821   87.6768   14.5340 H       1  UNL1        0.1493
     38 C          63.3219   87.3786   16.5413 C.3     1  UNL1        0.0569
     39 C          62.7451   88.6284   17.1374 C.3     1  UNL1        0.0196
     40 C          63.8987   86.1288   15.9452 C.3     1  UNL1        0.0196
     41 C          62.9025   86.6055   17.7564 C.3     1  UNL1        0.0196
     42 C          67.1055   92.6469   12.8666 C.3     1  UNL1        0.1074
     43 C          67.8632   92.8457   14.1458 C.ar    1  UNL1        0.0440
     44 C          69.0120   92.0109   14.6289 C.ar    1  UNL1        0.1030
     45 N          69.4639   92.5635   15.9482 N.ar    1  UNL1       -0.2350
     46 C          68.5944   93.7398   16.2804 C.ar    1  UNL1        0.1343
     47 S          67.6051   93.9142   15.1665 S.2     1  UNL1       -0.0674
     48 C          63.0428   87.0440   12.1602 C.3     1  UNL1        0.0484
     49 C          63.0405   85.5440   12.1504 C.ar    1  UNL1       -0.0204
     50 C          62.3220   84.8022   11.0625 C.ar    1  UNL1       -0.0042
     51 C          62.3197   83.3023   11.0527 C.ar    1  UNL1       -0.0003
     52 C          63.0358   82.5441   12.1308 C.ar    1  UNL1       -0.0000
     53 C          63.7543   83.2859   13.2187 C.ar    1  UNL1       -0.0003
     54 C          63.7566   84.7858   13.2285 C.ar    1  UNL1       -0.0042
@<TRIPOS>BOND
     1    18    19    1
     2    19    20    1
     3    19    13    1
     4    13    14   ar
     5    14    15   ar
     6    15    12    1
     7    12    11    1
     8    11     7    1
     9     7     8    2
    10     7     9   am
    11     6     9    1
    12     6     2    1
    13     2     3    2
    14     2     4   am
    15     4     1    1
    16     1    48    1
    17    48    49    1
    18    49    50   ar
    19    50    51   ar
    20    51    52   ar
    21    52    53   ar
    22    53    54   ar
    23     1    24    1
    24    24    25    1
    25    24    27    1
    26    27    28    1
    27    28    29    1
    28    29    30    1
    29    30    31    1
    30    31    42    1
    31    42    43    1
    32    43    44   ar
    33    44    45   ar
    34    45    46   ar
    35    46    47   ar
    36    31    32    1
    37    32    33    1
    38    33    34    1
    39    34    35    2
    40    34    36   am
    41    36    38    1
    42    38    39    1
    43    38    40    1
    44    38    41    1
    45     6    21    1
    46    21    22    1
    47    21    23    1
    48    15    16   ar
    49    16    17   ar
    50    17    13   ar
    51    54    49   ar
    52    33    28    1
    53    47    43   ar
    54     9    10    1
    55     4     5    1
    56    25    26    1
    57    36    37    1
@<TRIPOS>MOLECULE
*****
 54 57 0 0 0
SMALL
GASTEIGER

@<TRIPOS>ATOM
      1 C          62.0707   88.7771   10.4199 C.3     1  UNL1        0.1041
      2 C          62.1736   86.2700    9.7461 C.2     1  UNL1        0.2405
      3 O          61.2269   85.9319   10.8594 O.2     1  UNL1       -0.2733
      4 N          62.5955   87.6926    9.5263 N.am    1  UNL1       -0.3019
      5 H          63.2168   87.9145    8.7956 H       1  UNL1        0.1495
      6 C          62.6984   85.1855    8.8525 C.3     1  UNL1        0.1510
      7 C          63.5852   83.3190   10.4272 C.2     1  UNL1        0.4023
      8 O          62.2317   83.2146   11.0656 O.2     1  UNL1       -0.2264
      9 N          63.8185   84.3044    9.3207 N.am    1  UNL1       -0.2640
     10 H          64.7067   84.3730    8.9017 H       1  UNL1        0.1532
     11 O          64.7052   82.4379   10.8954 O.3     1  UNL1       -0.4280
     12 C          64.7196   81.9291   12.3064 C.3     1  UNL1        0.2561
     13 C          63.7515   84.5963   14.9550 C.ar    1  UNL1        0.0876
     14 N          64.6024   84.1374   13.8081 N.ar    1  UNL1       -0.2433
     15 C          64.1445   82.7653   13.4111 C.ar    1  UNL1        0.1094
     16 C          63.0106   82.3761   14.3126 C.ar    1  UNL1        0.0549
     17 S          62.7677   83.5077   15.2668 S.2     1  UNL1       -0.0705
     18 C          64.6623   87.0274   15.0564 C.3     1  UNL1        0.0069
     19 C          63.8645   85.9126   15.6654 C.3     1  UNL1        0.0465
     20 C          63.1797   86.1140   16.9846 C.3     1  UNL1        0.0069
     21 C          62.1032   84.9821    7.4908 C.3     1  UNL1        0.0270
     22 C          62.9702   84.5306    6.3531 C.3     1  UNL1        0.0022
     23 C          60.6409   85.2303    7.2668 C.3     1  UNL1        0.0022
     24 C          62.8931   89.2577   11.5787 C.3     1  UNL1        0.1445
     25 O          63.4075   88.2775   12.5910 O.3     1  UNL1       -0.3813
     26 H          63.1204   87.3829   12.3498 H       1  UNL1        0.2105
     27 C          63.2012   90.7184   11.7251 C.3     1  UNL1        0.1038
     28 N          63.9792   91.2055   12.9114 N.3     1  UNL1       -0.2620
     29 C          63.6112   90.7442   14.2905 C.3     1  UNL1        0.0901
     30 C          64.3893   91.2314   15.4768 C.3     1  UNL1        0.0900
     31 N          65.5353   92.1798   15.2841 N.3     1  UNL1       -0.2657
     32 C          65.9033   92.6410   13.9050 C.3     1  UNL1        0.0980
     33 C          65.1253   92.1539   12.7187 C.3     1  UNL1        0.1510
     34 C          65.4933   92.6152   11.3397 C.2     1  UNL1        0.2383
     35 O          64.5451   92.3973   10.1980 O.2     1  UNL1       -0.2736
     36 N          66.8095   93.2943   11.1023 N.am    1  UNL1       -0.3063
     37 H          67.4319   93.4373   11.8516 H       1  UNL1        0.1493
     38 C          67.1775   93.7555    9.7232 C.3     1  UNL1        0.0569
     39 C          67.9290   92.4773    9.4962 C.3     1  UNL1        0.0196
     40 C          66.4261   95.0337    9.9502 C.3     1  UNL1        0.0196
     41 C          67.5455   94.2168    8.3441 C.3     1  UNL1        0.0196
     42 C          66.3133   92.6669   16.4704 C.3     1  UNL1        0.1074
     43 C          67.7777   92.9628   16.3368 C.ar    1  UNL1        0.0440
     44 C          68.3854   94.3107   16.0835 C.ar    1  UNL1        0.1030
     45 N          69.8749   94.1436   16.0232 N.ar    1  UNL1       -0.2350
     46 C          70.1877   92.6926   16.2393 C.ar    1  UNL1        0.1343
     47 S          68.8916   91.9628   16.4331 S.2     1  UNL1       -0.0674
     48 C          60.7234   89.3810   10.1548 C.3     1  UNL1        0.0484
     49 C          60.0202   89.1060    8.8587 C.ar    1  UNL1       -0.0204
     50 C          59.2096   87.8544    8.6961 C.ar    1  UNL1       -0.0042
     51 C          58.5064   87.5795    7.4000 C.ar    1  UNL1       -0.0003
     52 C          58.6137   88.5561    6.2666 C.ar    1  UNL1       -0.0000
     53 C          59.4242   89.8077    6.4292 C.ar    1  UNL1       -0.0003
     54 C          60.1275   90.0826    7.7253 C.ar    1  UNL1       -0.0042
@<TRIPOS>BOND
     1    18    19    1
     2    19    20    1
     3    19    13    1
     4    13    14   ar
     5    14    15   ar
     6    15    12    1
     7    12    11    1
     8    11     7    1
     9     7     8    2
    10     7     9   am
    11     6     9    1
    12     6     2    1
    13     2     3    2
    14     2     4   am
    15     4     1    1
    16     1    48    1
    17    48    49    1
    18    49    50   ar
    19    50    51   ar
    20    51    52   ar
    21    52    53   ar
    22    53    54   ar
    23     1    24    1
    24    24    25    1
    25    24    27    1
    26    27    28    1
    27    28    29    1
    28    29    30    1
    29    30    31    1
    30    31    42    1
    31    42    43    1
    32    43    44   ar
    33    44    45   ar
    34    45    46   ar
    35    46    47   ar
    36    31    32    1
    37    32    33    1
    38    33    34    1
    39    34    35    2
    40    34    36   am
    41    36    38    1
    42    38    39    1
    43    38    40    1
    44    38    41    1
    45     6    21    1
    46    21    22    1
    47    21    23    1
    48    15    16   ar
    49    16    17   ar
    50    17    13   ar
    51    54    49   ar
    52    33    28    1
    53    47    43   ar
    54     9    10    1
    55     4     5    1
    56    25    26    1
    57    36    37    1
@<TRIPOS>MOLECULE
*****
 54 57 0 0 0
SMALL
GASTEIGER

@<TRIPOS>ATOM
      1 C          62.4465   90.1227   10.5062 C.3     1  UNL1        0.1041
      2 C          60.4729   88.7953    9.4608 C.2     1  UNL1        0.2405
      3 O          59.5654   89.2876   10.5489 O.2     1  UNL1       -0.2733
      4 N          61.9135   89.2129    9.4394 N.am    1  UNL1       -0.3019
      5 H          62.5091   88.8898    8.7252 H       1  UNL1        0.1495
      6 C          59.9398   87.8855    8.3940 C.3     1  UNL1        0.1510
      7 C          59.2942   89.6699    6.6194 C.2     1  UNL1        0.4023
      8 O          60.5758   90.4015    6.8889 O.2     1  UNL1       -0.2264
      9 N          58.9763   88.4119    7.3719 N.am    1  UNL1       -0.2640
     10 H          58.1352   87.9317    7.1951 H       1  UNL1        0.1532
     11 O          58.3308   90.1963    5.5974 O.3     1  UNL1       -0.4280
     12 C          58.4572   91.6073    5.1041 C.3     1  UNL1        0.2561
     13 C          61.7174   92.0954    3.0550 C.ar    1  UNL1        0.0876
     14 N          60.9690   91.4780    4.1991 N.ar    1  UNL1       -0.2433
     15 C          59.5536   91.9720    4.1476 C.ar    1  UNL1        0.1094
     16 C          59.4272   92.8947    2.9718 C.ar    1  UNL1        0.0549
     17 S          60.7644   92.9709    2.2965 S.2     1  UNL1       -0.0705
     18 C          63.9036   92.8758    1.8882 C.3     1  UNL1        0.0069
     19 C          63.1645   91.8757    2.7271 C.3     1  UNL1        0.0465
     20 C          63.8726   90.6561    3.2380 C.3     1  UNL1        0.0069
     21 C          60.3703   86.4493    8.3492 C.3     1  UNL1        0.0270
     22 C          60.0776   85.6161    7.1368 C.3     1  UNL1        0.0022
     23 C          61.0934   85.8464    9.5169 C.3     1  UNL1        0.0022
     24 C          62.4442   89.6801   11.9395 C.3     1  UNL1        0.1445
     25 O          61.2228   89.8850   12.7857 O.3     1  UNL1       -0.3813
     26 H          60.5312   90.3130   12.2571 H       1  UNL1        0.2105
     27 C          63.6632   89.0325   12.5264 C.3     1  UNL1        0.1038
     28 N          63.5521   87.6972   13.2005 N.3     1  UNL1       -0.2620
     29 C          63.2696   86.4681   12.3883 C.3     1  UNL1        0.0901
     30 C          63.1584   85.1327   13.0626 C.3     1  UNL1        0.0900
     31 N          63.3297   85.0265   14.5490 N.3     1  UNL1       -0.2657
     32 C          63.6122   86.2555   15.3611 C.3     1  UNL1        0.0980
     33 C          63.7234   87.5908   14.6870 C.3     1  UNL1        0.1510
     34 C          64.0059   88.8199   15.4992 C.2     1  UNL1        0.2383
     35 O          63.5315   88.9055   16.9197 O.2     1  UNL1       -0.2736
     36 N          64.7627   89.9632   14.8909 N.am    1  UNL1       -0.3063
     37 H          65.0740   89.9070   13.9587 H       1  UNL1        0.1493
     38 C          65.0452   91.1923   15.7031 C.3     1  UNL1        0.0569
     39 C          66.4790   91.1526   15.2645 C.3     1  UNL1        0.0196
     40 C          63.6113   91.2319   16.1418 C.3     1  UNL1        0.0196
     41 C          65.3277   92.4213   16.5153 C.3     1  UNL1        0.0196
     42 C          63.2186   83.6912   15.2231 C.3     1  UNL1        0.1074
     43 C          62.8719   82.4723   14.4205 C.ar    1  UNL1        0.0440
     44 C          61.5667   81.7338   14.4580 C.ar    1  UNL1        0.1030
     45 N          61.6577   80.5830   13.5001 N.ar    1  UNL1       -0.2350
     46 C          63.0190   80.6103   12.8707 C.ar    1  UNL1        0.1343
     47 S          63.7693   81.7779   13.4395 S.2     1  UNL1       -0.0674
     48 C          62.9818   91.4752   10.1398 C.3     1  UNL1        0.0484
     49 C          64.2749   91.9549   10.7296 C.ar    1  UNL1       -0.0204
     50 C          65.4901   92.0923    9.8611 C.ar    1  UNL1       -0.0042
     51 C          66.7831   92.5721   10.4510 C.ar    1  UNL1       -0.0003
     52 C          66.8609   92.9145   11.9093 C.ar    1  UNL1       -0.0000
     53 C          65.6457   92.7771   12.7778 C.ar    1  UNL1       -0.0003
     54 C          64.3527   92.2973   12.1880 C.ar    1  UNL1       -0.0042
@<TRIPOS>BOND
     1    18    19    1
     2    19    20    1
     3    19    13    1
     4    13    14   ar
     5    14    15   ar
     6    15    12    1
     7    12    11    1
     8    11     7    1
     9     7     8    2
    10     7     9   am
    11     6     9    1
    12     6     2    1
    13     2     3    2
    14     2     4   am
    15     4     1    1
    16     1    48    1
    17    48    49    1
    18    49    50   ar
    19    50    51   ar
    20    51    52   ar
    21    52    53   ar
    22    53    54   ar
    23     1    24    1
    24    24    25    1
    25    24    27    1
    26    27    28    1
    27    28    29    1
    28    29    30    1
    29    30    31    1
    30    31    42    1
    31    42    43    1
    32    43    44   ar
    33    44    45   ar
    34    45    46   ar
    35    46    47   ar
    36    31    32    1
    37    32    33    1
    38    33    34    1
    39    34    35    2
    40    34    36   am
    41    36    38    1
    42    38    39    1
    43    38    40    1
    44    38    41    1
    45     6    21    1
    46    21    22    1
    47    21    23    1
    48    15    16   ar
    49    16    17   ar
    50    17    13   ar
    51    54    49   ar
    52    33    28    1
    53    47    43   ar
    54     9    10    1
    55     4     5    1
    56    25    26    1
    57    36    37    1
@<TRIPOS>MOLECULE
*****
 54 57 0 0 0
SMALL
GASTEIGER

@<TRIPOS>ATOM
      1 C          60.4497   88.7955    8.8907 C.3     1  UNL1        0.1041
      2 C          61.0363   86.3626    8.1930 C.2     1  UNL1        0.2405
      3 O          59.5781   86.0642    8.0073 O.2     1  UNL1       -0.2733
      4 N          61.4721   87.7283    8.6348 N.am    1  UNL1       -0.3019
      5 H          62.4292   87.9241    8.7567 H       1  UNL1        0.1495
      6 C          62.0588   85.2953    7.9371 C.3     1  UNL1        0.1510
      7 C          62.6592   85.0966   10.4571 C.2     1  UNL1        0.4023
      8 O          61.3192   85.6641   10.8210 O.2     1  UNL1       -0.2264
      9 N          63.0290   84.9122    9.0151 N.am    1  UNL1       -0.2640
     10 H          63.9085   84.5397    8.7762 H       1  UNL1        0.1532
     11 O          63.6293   84.7135   11.5351 O.3     1  UNL1       -0.4280
     12 C          63.1618   83.9148   12.7155 C.3     1  UNL1        0.2561
     13 C          62.7316   80.2115   11.6356 C.ar    1  UNL1        0.0876
     14 N          63.0444   81.6425   11.3126 N.ar    1  UNL1       -0.2433
     15 C          62.9322   82.4387   12.5789 C.ar    1  UNL1        0.1094
     16 C          62.5500   81.4998   13.6845 C.ar    1  UNL1        0.0549
     17 S          62.4260   80.1233   13.1015 S.2     1  UNL1       -0.0705
     18 C          62.7070   77.6562   11.1665 C.3     1  UNL1        0.0069
     19 C          62.7254   79.0692   10.6634 C.3     1  UNL1        0.0465
     20 C          62.7377   79.3399    9.1881 C.3     1  UNL1        0.0069
     21 C          62.1111   84.6112    6.6033 C.3     1  UNL1        0.0270
     22 C          60.8749   83.9791    6.0355 C.3     1  UNL1        0.0022
     23 C          63.3997   84.5592    5.8372 C.3     1  UNL1        0.0022
     24 C          60.6269   89.7440   10.0392 C.3     1  UNL1        0.1445
     25 O          59.7274   90.9370   10.1723 O.3     1  UNL1       -0.3813
     26 H          59.0921   90.9463    9.4394 H       1  UNL1        0.2105
     27 C          61.7036   89.4996   11.0545 C.3     1  UNL1        0.1038
     28 N          62.8080   90.4990   11.2319 N.3     1  UNL1       -0.2620
     29 C          63.2434   91.3489   10.0752 C.3     1  UNL1        0.0901
     30 C          64.3479   92.3483   10.2526 C.3     1  UNL1        0.0900
     31 N          65.0168   92.4978   11.5868 N.3     1  UNL1       -0.2657
     32 C          64.5814   91.6479   12.7436 C.3     1  UNL1        0.0980
     33 C          63.4770   90.6485   12.5662 C.3     1  UNL1        0.1510
     34 C          63.0416   89.7987   13.7229 C.2     1  UNL1        0.2383
     35 O          61.5867   89.6989   14.0745 O.2     1  UNL1       -0.2736
     36 N          64.0609   89.0486   14.5281 N.am    1  UNL1       -0.3063
     37 H          65.0157   89.1140   14.2973 H       1  UNL1        0.1493
     38 C          63.6255   88.1987   15.6848 C.3     1  UNL1        0.0569
     39 C          63.1902   89.4287   16.4247 C.3     1  UNL1        0.0196
     40 C          64.0607   86.9686   14.9449 C.3     1  UNL1        0.0196
     41 C          63.1901   87.3488   16.8416 C.3     1  UNL1        0.0196
     42 C          66.1212   93.4972   11.7643 C.3     1  UNL1        0.1074
     43 C          66.5199   94.3850   10.6228 C.ar    1  UNL1        0.0440
     44 C          67.4933   94.0391    9.5352 C.ar    1  UNL1        0.1030
     45 N          67.5902   95.2149    8.6087 N.ar    1  UNL1       -0.2350
     46 C          66.6766   96.2874    9.1238 C.ar    1  UNL1        0.1343
     47 S          66.0151   95.7744   10.3685 S.2     1  UNL1       -0.0674
     48 C          59.2500   88.9143    7.9982 C.3     1  UNL1        0.0484
     49 C          59.2835   89.8360    6.8153 C.ar    1  UNL1       -0.0204
     50 C          58.0057   90.3967    6.2649 C.ar    1  UNL1       -0.0042
     51 C          58.0393   91.3184    5.0820 C.ar    1  UNL1       -0.0003
     52 C          59.3506   91.6794    4.4494 C.ar    1  UNL1       -0.0000
     53 C          60.6284   91.1187    4.9998 C.ar    1  UNL1       -0.0003
     54 C          60.5948   90.1970    6.1827 C.ar    1  UNL1       -0.0042
@<TRIPOS>BOND
     1    18    19    1
     2    19    20    1
     3    19    13    1
     4    13    14   ar
     5    14    15   ar
     6    15    12    1
     7    12    11    1
     8    11     7    1
     9     7     8    2
    10     7     9   am
    11     6     9    1
    12     6     2    1
    13     2     3    2
    14     2     4   am
    15     4     1    1
    16     1    48    1
    17    48    49    1
    18    49    50   ar
    19    50    51   ar
    20    51    52   ar
    21    52    53   ar
    22    53    54   ar
    23     1    24    1
    24    24    25    1
    25    24    27    1
    26    27    28    1
    27    28    29    1
    28    29    30    1
    29    30    31    1
    30    31    42    1
    31    42    43    1
    32    43    44   ar
    33    44    45   ar
    34    45    46   ar
    35    46    47   ar
    36    31    32    1
    37    32    33    1
    38    33    34    1
    39    34    35    2
    40    34    36   am
    41    36    38    1
    42    38    39    1
    43    38    40    1
    44    38    41    1
    45     6    21    1
    46    21    22    1
    47    21    23    1
    48    15    16   ar
    49    16    17   ar
    50    17    13   ar
    51    54    49   ar
    52    33    28    1
    53    47    43   ar
    54     9    10    1
    55     4     5    1
    56    25    26    1
    57    36    37    1
@<TRIPOS>MOLECULE
*****
 54 57 0 0 0
SMALL
GASTEIGER

@<TRIPOS>ATOM
      1 C          62.3237   89.9744   10.6784 C.3     1  UNL1        0.1041
      2 C          60.2587   89.5448    9.1615 C.2     1  UNL1        0.2405
      3 O          59.4762   90.5614    9.9387 O.2     1  UNL1       -0.2733
      4 N          61.6825   89.2513    9.5313 N.am    1  UNL1       -0.3019
      5 H          62.1960   88.5840    9.0212 H       1  UNL1        0.1495
      6 C          59.6174   88.8217    8.0144 C.3     1  UNL1        0.1510
      7 C          59.4485   90.2866    5.8753 C.2     1  UNL1        0.4023
      8 O          60.9401   90.2373    5.7239 O.2     1  UNL1       -0.2264
      9 N          58.7872   89.5788    7.0205 N.am    1  UNL1       -0.2640
     10 H          57.8082   89.6111    7.1199 H       1  UNL1        0.1532
     11 O          58.6184   91.0436    4.8814 O.3     1  UNL1       -0.4280
     12 C          59.0235   92.4263    4.4644 C.3     1  UNL1        0.2561
     13 C          60.5125   93.1530    0.9543 C.ar    1  UNL1        0.0876
     14 N          59.3481   93.1017    1.8984 N.ar    1  UNL1       -0.2433
     15 C          59.8508   92.6249    3.2289 C.ar    1  UNL1        0.1094
     16 C          61.3259   92.3817    3.1070 C.ar    1  UNL1        0.0549
     17 S          61.7349   92.7080    1.7013 S.2     1  UNL1       -0.0705
     18 C          61.6244   93.2895   -1.3899 C.3     1  UNL1        0.0069
     19 C          60.4633   93.5752   -0.4842 C.3     1  UNL1        0.0465
     20 C          59.2530   94.2832   -1.0170 C.3     1  UNL1        0.0069
     21 C          59.8063   87.3416    7.8611 C.3     1  UNL1        0.0270
     22 C          58.6121   86.4390    7.7654 C.3     1  UNL1        0.0022
     23 C          61.1894   86.7641    7.8035 C.3     1  UNL1        0.0022
     24 C          62.2259   89.4147   12.0667 C.3     1  UNL1        0.1445
     25 O          61.0884   89.8156   12.9585 O.3     1  UNL1       -0.3813
     26 H          60.5117   90.4372   12.4874 H       1  UNL1        0.2105
     27 C          63.2654   88.4541   12.5631 C.3     1  UNL1        0.1038
     28 N          63.1260   86.9872   12.2825 N.3     1  UNL1       -0.2620
     29 C          62.7936   86.5167   10.8975 C.3     1  UNL1        0.0901
     30 C          62.6542   85.0498   10.6170 C.3     1  UNL1        0.0900
     31 N          62.8472   84.0533   11.7214 N.3     1  UNL1       -0.2657
     32 C          63.1796   84.5238   13.1064 C.3     1  UNL1        0.0980
     33 C          63.3190   85.9906   13.3870 C.3     1  UNL1        0.1510
     34 C          63.6514   86.4611   14.7720 C.2     1  UNL1        0.2383
     35 O          65.0782   86.4822   15.2347 O.2     1  UNL1       -0.2736
     36 N          62.5572   86.9104   15.6942 N.am    1  UNL1       -0.3063
     37 H          61.6208   86.8966   15.3906 H       1  UNL1        0.1493
     38 C          62.8896   87.3809   17.0792 C.3     1  UNL1        0.0569
     39 C          62.6778   85.9910   17.6022 C.3     1  UNL1        0.0196
     40 C          63.1014   88.7707   16.5563 C.3     1  UNL1        0.0196
     41 C          63.2220   87.8513   18.4642 C.3     1  UNL1        0.0196
     42 C          62.7078   82.5864   11.4409 C.3     1  UNL1        0.1074
     43 C          62.7694   81.5981   12.5676 C.ar    1  UNL1        0.0440
     44 C          64.0153   81.1120   13.2469 C.ar    1  UNL1        0.1030
     45 N          63.6118   80.1359   14.3120 N.ar    1  UNL1       -0.2350
     46 C          62.1165   80.0187   14.2910 C.ar    1  UNL1        0.1343
     47 S          61.5959   80.9225   13.2129 S.2     1  UNL1       -0.0674
     48 C          63.0628   91.2572   10.4373 C.3     1  UNL1        0.0484
     49 C          64.2199   91.6325   11.3150 C.ar    1  UNL1       -0.0204
     50 C          64.1670   91.3503   12.7873 C.ar    1  UNL1       -0.0042
     51 C          65.3240   91.7256   13.6649 C.ar    1  UNL1       -0.0003
     52 C          66.5341   92.3830   13.0703 C.ar    1  UNL1       -0.0000
     53 C          66.5871   92.6652   11.5981 C.ar    1  UNL1       -0.0003
     54 C          65.4300   92.2899   10.7204 C.ar    1  UNL1       -0.0042
@<TRIPOS>BOND
     1    18    19    1
     2    19    20    1
     3    19    13    1
     4    13    14   ar
     5    14    15   ar
     6    15    12    1
     7    12    11    1
     8    11     7    1
     9     7     8    2
    10     7     9   am
    11     6     9    1
    12     6     2    1
    13     2     3    2
    14     2     4   am
    15     4     1    1
    16     1    48    1
    17    48    49    1
    18    49    50   ar
    19    50    51   ar
    20    51    52   ar
    21    52    53   ar
    22    53    54   ar
    23     1    24    1
    24    24    25    1
    25    24    27    1
    26    27    28    1
    27    28    29    1
    28    29    30    1
    29    30    31    1
    30    31    42    1
    31    42    43    1
    32    43    44   ar
    33    44    45   ar
    34    45    46   ar
    35    46    47   ar
    36    31    32    1
    37    32    33    1
    38    33    34    1
    39    34    35    2
    40    34    36   am
    41    36    38    1
    42    38    39    1
    43    38    40    1
    44    38    41    1
    45     6    21    1
    46    21    22    1
    47    21    23    1
    48    15    16   ar
    49    16    17   ar
    50    17    13   ar
    51    54    49   ar
    52    33    28    1
    53    47    43   ar
    54     9    10    1
    55     4     5    1
    56    25    26    1
    57    36    37    1
