@<TRIPOS>MOLECULE
*****
 30 33 0 0 0
SMALL
GASTEIGER

@<TRIPOS>ATOM
      1 C          61.9778   88.9614   10.9426 C.3     1  UNL1        0.0324
      2 C          61.1540   88.4891    9.7814 C.ar    1  UNL1       -0.0071
      3 C          60.7870   89.4441    8.6845 C.ar    1  UNL1        0.0115
      4 C          59.9632   88.9719    7.5234 C.ar    1  UNL1        0.0476
      5 C          59.5064   87.5446    7.4591 C.ar    1  UNL1        0.0158
      6 C          59.8733   86.5896    8.5560 C.ar    1  UNL1        0.0156
      7 C          60.6971   87.0618    9.7172 C.ar    1  UNL1        0.0466
      8 N          59.5962   89.9270    6.4264 N.pl3   1  UNL1       -0.3061
      9 C          58.2111   90.3957    6.0922 C.3     1  UNL1        0.0923
     10 C          58.3088   91.3394    4.9304 C.3     1  UNL1        0.0391
     11 C          59.7543   91.4539    4.5465 C.3     1  UNL1        0.0790
     12 C          60.5500   90.5810    5.4711 C.3     1  UNL1        0.1067
     13 N          60.3071   92.2938    3.4334 N.3     1  UNL1       -0.2736
     14 C          59.5458   93.3085    2.6330 C.3     1  UNL1        0.0721
     15 C          60.4865   93.9084    1.6303 C.3     1  UNL1        0.0187
     16 C          61.8291   93.2644    1.8111 C.3     1  UNL1        0.0174
     17 C          61.7182   92.2665    2.9255 C.3     1  UNL1        0.0576
     18 C          62.8243   91.3945    3.4414 C.3     1  UNL1        0.0173
     19 N          61.0641   86.1068   10.8141 N.am    1  UNL1       -0.2806
     20 C          62.2525   85.2051   10.6571 C.2     1  UNL1        0.2493
     21 O          63.0740   85.2585    9.4031 O.2     1  UNL1       -0.2698
     22 H          60.5250   86.0717   11.6371 H       1  UNL1        0.1552
     23 C          62.6195   84.2500   11.7540 C.ar    1  UNL1        0.0520
     24 C          62.3837   82.7792   11.5778 C.ar    1  UNL1        0.0338
     25 C          62.7506   81.8241   12.6747 C.ar    1  UNL1        0.1403
     26 F          62.5148   80.3533   12.4985 F       1  UNL1       -0.2042
     27 C          63.3534   82.3398   13.9477 C.ar    1  UNL1        0.0293
     28 C          63.5892   83.8107   14.1239 C.ar    1  UNL1       -0.0018
     29 C          63.2223   84.7658   13.0270 C.ar    1  UNL1       -0.0173
     30 C          63.4581   86.2366   13.2032 C.3     1  UNL1        0.0312
@<TRIPOS>BOND
     1     1     2    1
     2     2     3   ar
     3     3     4   ar
     4     4     8    1
     5     8     9    1
     6     9    10    1
     7    10    11    1
     8    11    13    1
     9    13    14    1
    10    14    15    1
    11    15    16    1
    12    16    17    1
    13    17    18    1
    14    11    12    1
    15     4     5   ar
    16     5     6   ar
    17     6     7   ar
    18     7    19    1
    19    19    20   am
    20    20    21    2
    21    20    23    1
    22    23    24   ar
    23    24    25   ar
    24    25    26    1
    25    25    27   ar
    26    27    28   ar
    27    28    29   ar
    28    29    30    1
    29     7     2   ar
    30    29    23   ar
    31    12     8    1
    32    17    13    1
    33    19    22    1
@<TRIPOS>MOLECULE
*****
 30 33 0 0 0
SMALL
GASTEIGER

@<TRIPOS>ATOM
      1 C          62.0776   87.7507   10.9036 C.3     1  UNL1        0.0324
      2 C          62.9911   88.1832   12.0119 C.ar    1  UNL1       -0.0071
      3 C          63.5847   89.5607   12.0002 C.ar    1  UNL1        0.0115
      4 C          64.4981   89.9933   13.1085 C.ar    1  UNL1        0.0476
      5 C          64.8181   89.0484   14.2286 C.ar    1  UNL1        0.0158
      6 C          64.2245   87.6709   14.2404 C.ar    1  UNL1        0.0156
      7 C          63.3111   87.2383   13.1320 C.ar    1  UNL1        0.0466
      8 N          65.0917   91.3709   13.0967 N.pl3   1  UNL1       -0.3061
      9 C          65.5085   92.1617   14.3012 C.3     1  UNL1        0.0923
     10 C          66.0470   93.4790   13.8272 C.3     1  UNL1        0.0391
     11 C          65.9630   93.5023   12.3297 C.3     1  UNL1        0.0790
     12 C          65.3726   92.1994   11.8783 C.3     1  UNL1        0.1067
     13 N          66.3938   94.6305   11.4400 N.3     1  UNL1       -0.2736
     14 C          66.0913   96.0844   11.6507 C.3     1  UNL1        0.0721
     15 C          66.7133   96.8553   10.5243 C.3     1  UNL1        0.0187
     16 C          67.4002   95.8777    9.6174 C.3     1  UNL1        0.0174
     17 C          67.2028   94.5027   10.1833 C.3     1  UNL1        0.0576
     18 C          67.7230   93.2244    9.5958 C.3     1  UNL1        0.0173
     19 N          62.7175   85.8607   13.1438 N.am    1  UNL1       -0.2806
     20 C          63.6042   84.6635   13.3176 C.2     1  UNL1        0.2493
     21 O          65.0845   84.8437   13.4796 O.2     1  UNL1       -0.2698
     22 H          61.7459   85.7424   13.0375 H       1  UNL1        0.1552
     23 C          63.0107   83.2859   13.3294 C.ar    1  UNL1        0.0520
     24 C          63.1915   82.3812   12.1467 C.ar    1  UNL1        0.0338
     25 C          62.5980   81.0037   12.1585 C.ar    1  UNL1        0.1403
     26 F          62.7788   80.0990   10.9757 F       1  UNL1       -0.2042
     27 C          61.8237   80.5309   13.3529 C.ar    1  UNL1        0.0293
     28 C          61.6429   81.4356   14.5357 C.ar    1  UNL1       -0.0018
     29 C          62.2364   82.8131   14.5239 C.ar    1  UNL1       -0.0173
     30 C          62.0556   83.7178   15.7066 C.3     1  UNL1        0.0312
@<TRIPOS>BOND
     1     1     2    1
     2     2     3   ar
     3     3     4   ar
     4     4     8    1
     5     8     9    1
     6     9    10    1
     7    10    11    1
     8    11    13    1
     9    13    14    1
    10    14    15    1
    11    15    16    1
    12    16    17    1
    13    17    18    1
    14    11    12    1
    15     4     5   ar
    16     5     6   ar
    17     6     7   ar
    18     7    19    1
    19    19    20   am
    20    20    21    2
    21    20    23    1
    22    23    24   ar
    23    24    25   ar
    24    25    26    1
    25    25    27   ar
    26    27    28   ar
    27    28    29   ar
    28    29    30    1
    29     7     2   ar
    30    29    23   ar
    31    12     8    1
    32    17    13    1
    33    19    22    1
@<TRIPOS>MOLECULE
*****
 30 33 0 0 0
SMALL
GASTEIGER

@<TRIPOS>ATOM
      1 C          60.1512   85.4028    7.6566 C.3     1  UNL1        0.0324
      2 C          60.1721   86.8775    7.9304 C.ar    1  UNL1       -0.0071
      3 C          59.8286   87.8478    6.8394 C.ar    1  UNL1        0.0115
      4 C          59.8496   89.3225    7.1133 C.ar    1  UNL1        0.0476
      5 C          60.2141   89.8268    8.4781 C.ar    1  UNL1        0.0158
      6 C          60.5577   88.8564    9.5691 C.ar    1  UNL1        0.0156
      7 C          60.5367   87.3817    9.2952 C.ar    1  UNL1        0.0466
      8 N          59.5060   90.2929    6.0222 N.pl3   1  UNL1       -0.3061
      9 C          58.1426   90.8472    5.7324 C.3     1  UNL1        0.0923
     10 C          58.2595   91.7762    4.5605 C.3     1  UNL1        0.0391
     11 C          59.6951   91.7960    4.1260 C.3     1  UNL1        0.0790
     12 C          60.4654   90.8793    5.0294 C.3     1  UNL1        0.1067
     13 N          60.2610   92.5927    2.9880 N.3     1  UNL1       -0.2736
     14 C          59.4970   93.5351    2.1059 C.3     1  UNL1        0.0721
     15 C          60.4540   94.1116    1.1050 C.3     1  UNL1        0.0187
     16 C          61.8094   93.5255    1.3686 C.3     1  UNL1        0.0174
     17 C          61.6900   92.5867    2.5324 C.3     1  UNL1        0.0576
     18 C          62.8042   91.7831    3.1348 C.3     1  UNL1        0.0173
     19 N          60.8803   86.4113   10.3863 N.am    1  UNL1       -0.2806
     20 C          62.2171   85.7309   10.3913 C.2     1  UNL1        0.2493
     21 O          63.2103   86.0209    9.3053 O.2     1  UNL1       -0.2698
     22 H          60.2284   86.2211   11.0991 H       1  UNL1        0.1552
     23 C          62.5606   84.7605   11.4824 C.ar    1  UNL1        0.0520
     24 C          62.1336   85.0367   12.8936 C.ar    1  UNL1        0.0338
     25 C          62.4772   84.0664   13.9846 C.ar    1  UNL1        0.1403
     26 F          62.0502   84.3425   15.3958 F       1  UNL1       -0.2042
     27 C          63.2478   82.8199   13.6645 C.ar    1  UNL1        0.0293
     28 C          63.6748   82.5438   12.2533 C.ar    1  UNL1       -0.0018
     29 C          63.3312   83.5141   11.1623 C.ar    1  UNL1       -0.0173
     30 C          63.7582   83.2379    9.7511 C.3     1  UNL1        0.0312
@<TRIPOS>BOND
     1     1     2    1
     2     2     3   ar
     3     3     4   ar
     4     4     8    1
     5     8     9    1
     6     9    10    1
     7    10    11    1
     8    11    13    1
     9    13    14    1
    10    14    15    1
    11    15    16    1
    12    16    17    1
    13    17    18    1
    14    11    12    1
    15     4     5   ar
    16     5     6   ar
    17     6     7   ar
    18     7    19    1
    19    19    20   am
    20    20    21    2
    21    20    23    1
    22    23    24   ar
    23    24    25   ar
    24    25    26    1
    25    25    27   ar
    26    27    28   ar
    27    28    29   ar
    28    29    30    1
    29     7     2   ar
    30    29    23   ar
    31    12     8    1
    32    17    13    1
    33    19    22    1
@<TRIPOS>MOLECULE
*****
 30 33 0 0 0
SMALL
GASTEIGER

@<TRIPOS>ATOM
      1 C          64.0718   92.6185    1.8751 C.3     1  UNL1        0.0324
      2 C          62.6256   92.8666    2.1863 C.ar    1  UNL1       -0.0071
      3 C          61.9302   92.0410    3.2278 C.ar    1  UNL1        0.0115
      4 C          60.4840   92.2891    3.5390 C.ar    1  UNL1        0.0476
      5 C          59.7331   93.3627    2.8087 C.ar    1  UNL1        0.0158
      6 C          60.4285   94.1882    1.7671 C.ar    1  UNL1        0.0156
      7 C          61.8747   93.9402    1.4559 C.ar    1  UNL1        0.0466
      8 N          59.7886   91.4635    4.5806 N.pl3   1  UNL1       -0.3061
      9 C          58.3426   91.5655    4.9659 C.3     1  UNL1        0.0923
     10 C          58.0775   90.5560    6.0432 C.3     1  UNL1        0.0391
     11 C          59.3598   89.8299    6.3238 C.3     1  UNL1        0.0790
     12 C          60.4173   90.3908    5.4198 C.3     1  UNL1        0.1067
     13 N          59.5510   88.7353    7.3313 N.3     1  UNL1       -0.2736
     14 C          59.2962   87.2745    7.1050 C.3     1  UNL1        0.0721
     15 C          59.6183   86.5456    8.3759 C.3     1  UNL1        0.0187
     16 C          60.0721   87.5559    9.3875 C.3     1  UNL1        0.0174
     17 C          60.0305   88.9092    8.7418 C.3     1  UNL1        0.0576
     18 C          60.4030   90.2084    9.3926 C.3     1  UNL1        0.0173
     19 N          62.5701   94.7658    0.4143 N.am    1  UNL1       -0.2806
     20 C          62.6486   94.2763   -1.0014 C.2     1  UNL1        0.2493
     21 O          62.0319   92.9611   -1.3755 O.2     1  UNL1       -0.2698
     22 H          62.9749   95.6290    0.6598 H       1  UNL1        0.1552
     23 C          63.3440   95.1019   -2.0430 C.ar    1  UNL1        0.0520
     24 C          64.7520   95.5661   -1.8151 C.ar    1  UNL1        0.0338
     25 C          65.4474   96.3917   -2.8566 C.ar    1  UNL1        0.1403
     26 F          66.8554   96.8560   -2.6287 F       1  UNL1       -0.2042
     27 C          64.7347   96.7531   -4.1261 C.ar    1  UNL1        0.0293
     28 C          63.3267   96.2888   -4.3539 C.ar    1  UNL1       -0.0018
     29 C          62.6313   95.4632   -3.3124 C.ar    1  UNL1       -0.0173
     30 C          61.2233   94.9990   -3.5403 C.3     1  UNL1        0.0312
@<TRIPOS>BOND
     1     1     2    1
     2     2     3   ar
     3     3     4   ar
     4     4     8    1
     5     8     9    1
     6     9    10    1
     7    10    11    1
     8    11    13    1
     9    13    14    1
    10    14    15    1
    11    15    16    1
    12    16    17    1
    13    17    18    1
    14    11    12    1
    15     4     5   ar
    16     5     6   ar
    17     6     7   ar
    18     7    19    1
    19    19    20   am
    20    20    21    2
    21    20    23    1
    22    23    24   ar
    23    24    25   ar
    24    25    26    1
    25    25    27   ar
    26    27    28   ar
    27    28    29   ar
    28    29    30    1
    29     7     2   ar
    30    29    23   ar
    31    12     8    1
    32    17    13    1
    33    19    22    1
@<TRIPOS>MOLECULE
*****
 30 33 0 0 0
SMALL
GASTEIGER

@<TRIPOS>ATOM
      1 C          60.0620   95.3561    1.0138 C.3     1  UNL1        0.0324
      2 C          60.7467   94.2422    1.7490 C.ar    1  UNL1       -0.0071
      3 C          59.9903   93.4367    2.7634 C.ar    1  UNL1        0.0115
      4 C          60.6750   92.3228    3.4985 C.ar    1  UNL1        0.0476
      5 C          62.1162   92.0145    3.2193 C.ar    1  UNL1        0.0158
      6 C          62.8726   92.8199    2.2049 C.ar    1  UNL1        0.0156
      7 C          62.1878   93.9338    1.4698 C.ar    1  UNL1        0.0466
      8 N          59.9185   91.5173    4.5129 N.pl3   1  UNL1       -0.3061
      9 C          58.4541   91.6328    4.8163 C.3     1  UNL1        0.0923
     10 C          58.1242   90.6418    5.8929 C.3     1  UNL1        0.0391
     11 C          59.3848   89.9138    6.2549 C.3     1  UNL1        0.0790
     12 C          60.4938   90.4549    5.4020 C.3     1  UNL1        0.1067
     13 N          59.5138   88.8343    7.2883 N.3     1  UNL1       -0.2736
     14 C          59.1033   87.4012    7.1222 C.3     1  UNL1        0.0721
     15 C          59.4117   86.6795    8.4005 C.3     1  UNL1        0.0187
     16 C          60.0129   87.6666    9.3566 C.3     1  UNL1        0.0174
     17 C          60.0760   88.9983    8.6693 C.3     1  UNL1        0.0576
     18 C          60.6079   90.2708    9.2593 C.3     1  UNL1        0.0173
     19 N          62.9443   94.7393    0.4554 N.am    1  UNL1       -0.2806
     20 C          62.9319   94.3304   -0.9877 C.2     1  UNL1        0.2493
     21 O          62.1629   93.1159   -1.4165 O.2     1  UNL1       -0.2698
     22 H          63.4490   95.5364    0.7367 H       1  UNL1        0.1552
     23 C          63.6883   95.1359   -2.0021 C.ar    1  UNL1        0.0520
     24 C          63.1889   95.2238   -3.4138 C.ar    1  UNL1        0.0338
     25 C          63.9453   96.0292   -4.4282 C.ar    1  UNL1        0.1403
     26 F          63.4458   96.1171   -5.8399 F       1  UNL1       -0.2042
     27 C          65.2012   96.7468   -4.0309 C.ar    1  UNL1        0.0293
     28 C          65.7006   96.6588   -2.6193 C.ar    1  UNL1       -0.0018
     29 C          64.9442   95.8534   -1.6049 C.ar    1  UNL1       -0.0173
     30 C          65.4437   95.7655   -0.1932 C.3     1  UNL1        0.0312
@<TRIPOS>BOND
     1     1     2    1
     2     2     3   ar
     3     3     4   ar
     4     4     8    1
     5     8     9    1
     6     9    10    1
     7    10    11    1
     8    11    13    1
     9    13    14    1
    10    14    15    1
    11    15    16    1
    12    16    17    1
    13    17    18    1
    14    11    12    1
    15     4     5   ar
    16     5     6   ar
    17     6     7   ar
    18     7    19    1
    19    19    20   am
    20    20    21    2
    21    20    23    1
    22    23    24   ar
    23    24    25   ar
    24    25    26    1
    25    25    27   ar
    26    27    28   ar
    27    28    29   ar
    28    29    30    1
    29     7     2   ar
    30    29    23   ar
    31    12     8    1
    32    17    13    1
    33    19    22    1
