@<TRIPOS>MOLECULE
*****
 36 39 0 0 0
SMALL
GASTEIGER

@<TRIPOS>ATOM
      1 O          61.5537   87.5832   10.9591 O.3     1  UNL1       -0.4741
      2 C          62.4356   88.7261   11.3663 C.ar    1  UNL1        0.1513
      3 C          63.2860   88.6158   12.5970 C.ar    1  UNL1        0.0688
      4 C          64.1679   89.7588   13.0042 C.ar    1  UNL1        0.1620
      5 F          65.0183   89.6485   14.2349 F       1  UNL1       -0.2026
      6 C          64.1995   91.0121   12.1806 C.ar    1  UNL1        0.1535
      7 C          63.3491   91.1224   10.9499 C.ar    1  UNL1        0.0369
      8 C          62.4672   89.9794   10.5427 C.ar    1  UNL1        0.0930
      9 CL         61.6168   90.0897    9.3120 Cl      1  UNL1       -0.0790
     10 S          65.0814   92.1550   12.5878 S.O2    1  UNL1        0.0769
     11 O          65.6435   92.2162   11.1985 O.2     1  UNL1       -0.1498
     12 O          64.5193   92.0939   13.9771 O.2     1  UNL1       -0.1498
     13 N          65.9634   93.2981   12.9949 N.pl3   1  UNL1       -0.1984
     14 H          65.7759   94.2064   12.6647 H       1  UNL1        0.1753
     15 C          67.1310   93.0571   13.9052 C.ar    1  UNL1        0.1542
     16 C          67.3067   93.6239   15.2828 C.ar    1  UNL1        0.0725
     17 S          68.6123   93.1241   15.8267 S.2     1  UNL1       -0.0625
     18 C          69.2435   92.2484   14.7852 C.ar    1  UNL1        0.1360
     19 N          68.3281   92.2069   13.5976 N.ar    1  UNL1       -0.2203
     20 C          61.6169   86.2840   11.7062 C.3     1  UNL1        0.2110
     21 N          61.8330   85.5468    8.8062 N.3     1  UNL1       -0.3218
     22 C          62.6851   84.8473    9.8234 C.3     1  UNL1        0.0588
     23 C          63.6452   83.7792    9.3906 C.3     1  UNL1        0.0206
     24 C          64.4972   83.0797   10.4077 C.3     1  UNL1        0.0271
     25 C          64.3892   83.4482   11.8577 C.2     1  UNL1       -0.0302
     26 C          63.4291   84.5163   12.2905 C.2     1  UNL1       -0.0218
     27 C          62.5770   85.2158   11.2733 C.3     1  UNL1        0.0798
     28 H          62.0352   85.1736    7.8787 H       1  UNL1        0.1188
     29 H          62.0359   86.5463    8.8222 H       1  UNL1        0.1188
     30 C          63.3210   84.8849   13.7405 C.ar    1  UNL1       -0.0040
     31 C          62.3165   84.1967   14.6165 C.ar    1  UNL1        0.0020
     32 C          62.2084   84.5653   16.0665 C.ar    1  UNL1        0.0296
     33 C          63.1049   85.6221   16.6405 C.ar    1  UNL1        0.1401
     34 F          62.9969   85.9908   18.0905 F       1  UNL1       -0.2042
     35 C          64.1095   86.3103   15.7645 C.ar    1  UNL1        0.0296
     36 C          64.2175   85.9417   14.3146 C.ar    1  UNL1        0.0020
@<TRIPOS>BOND
     1    22    21    1
     2    22    23    1
     3    23    24    1
     4    24    25    1
     5    25    26    2
     6    26    30    1
     7    30    31   ar
     8    31    32   ar
     9    32    33   ar
    10    33    34    1
    11    33    35   ar
    12    35    36   ar
    13    26    27    1
    14    27    20    1
    15    20     1    1
    16     1     2    1
    17     2     3   ar
    18     3     4   ar
    19     4     5    1
    20     4     6   ar
    21     6    10    1
    22    10    11    2
    23    10    12    2
    24    10    13    1
    25    13    15    1
    26    15    16   ar
    27    16    17   ar
    28    17    18   ar
    29    18    19   ar
    30     6     7   ar
    31     7     8   ar
    32     8     9    1
    33    27    22    1
    34     8     2   ar
    35    36    30   ar
    36    19    15   ar
    37    21    28    1
    38    21    29    1
    39    13    14    1
@<TRIPOS>MOLECULE
*****
 36 39 0 0 0
SMALL
GASTEIGER

@<TRIPOS>ATOM
      1 O          61.3081   87.6643   11.0720 O.3     1  UNL1       -0.4741
      2 C          62.2379   88.8170   11.3108 C.ar    1  UNL1        0.1513
      3 C          63.1513   88.8097   12.5005 C.ar    1  UNL1        0.0688
      4 C          64.0811   89.9624   12.7393 C.ar    1  UNL1        0.1620
      5 F          64.9945   89.9552   13.9290 F       1  UNL1       -0.2026
      6 C          64.0973   91.1223   11.7883 C.ar    1  UNL1        0.1535
      7 C          63.1839   91.1295   10.5985 C.ar    1  UNL1        0.0369
      8 C          62.2542   89.9769   10.3597 C.ar    1  UNL1        0.0930
      9 CL         61.3407   89.9841    9.1700 Cl      1  UNL1       -0.0790
     10 S          65.0271   92.2749   12.0270 S.O2    1  UNL1        0.0769
     11 O          65.4469   92.2344   10.5876 O.2     1  UNL1       -0.1498
     12 O          64.6072   92.3154   13.4665 O.2     1  UNL1       -0.1498
     13 N          65.9568   93.4276   12.2657 N.pl3   1  UNL1       -0.1984
     14 H          66.3012   93.6029   13.1712 H       1  UNL1        0.1753
     15 C          66.3620   94.3131   11.1248 C.ar    1  UNL1        0.1542
     16 C          65.6047   95.5068   10.6232 C.ar    1  UNL1        0.0725
     17 S          66.3702   96.0919    9.4735 S.2     1  UNL1       -0.0625
     18 C          67.6005   95.2597    9.2645 C.ar    1  UNL1        0.1360
     19 N          67.5955   94.1603   10.2850 N.ar    1  UNL1       -0.2203
     20 C          61.4842   86.3874   11.8391 C.3     1  UNL1        0.2110
     21 N          61.6062   85.7054    8.9202 N.3     1  UNL1       -0.3218
     22 C          62.5091   85.0055    9.8923 C.3     1  UNL1        0.0588
     23 C          63.4729   83.9647    9.4049 C.3     1  UNL1        0.0206
     24 C          64.3758   83.2648   10.3770 C.3     1  UNL1        0.0271
     25 C          64.3148   83.6057   11.8364 C.2     1  UNL1       -0.0302
     26 C          63.3510   84.6466   12.3238 C.2     1  UNL1       -0.0218
     27 C          62.4481   85.3465   11.3517 C.3     1  UNL1        0.0798
     28 H          61.7809   85.3525    7.9792 H       1  UNL1        0.1188
     29 H          61.7901   86.7083    8.9468 H       1  UNL1        0.1188
     30 C          63.2900   84.9876   13.7833 C.ar    1  UNL1       -0.0040
     31 C          64.1754   86.0629   14.3399 C.ar    1  UNL1        0.0020
     32 C          64.1144   86.4039   15.7994 C.ar    1  UNL1        0.0296
     33 C          63.1679   85.6696   16.7022 C.ar    1  UNL1        0.1401
     34 F          63.1069   86.0106   18.1616 F       1  UNL1       -0.2042
     35 C          62.2824   84.5943   16.1455 C.ar    1  UNL1        0.0296
     36 C          62.3435   84.2534   14.6861 C.ar    1  UNL1        0.0020
@<TRIPOS>BOND
     1    22    21    1
     2    22    23    1
     3    23    24    1
     4    24    25    1
     5    25    26    2
     6    26    30    1
     7    30    31   ar
     8    31    32   ar
     9    32    33   ar
    10    33    34    1
    11    33    35   ar
    12    35    36   ar
    13    26    27    1
    14    27    20    1
    15    20     1    1
    16     1     2    1
    17     2     3   ar
    18     3     4   ar
    19     4     5    1
    20     4     6   ar
    21     6    10    1
    22    10    11    2
    23    10    12    2
    24    10    13    1
    25    13    15    1
    26    15    16   ar
    27    16    17   ar
    28    17    18   ar
    29    18    19   ar
    30     6     7   ar
    31     7     8   ar
    32     8     9    1
    33    27    22    1
    34     8     2   ar
    35    36    30   ar
    36    19    15   ar
    37    21    28    1
    38    21    29    1
    39    13    14    1
@<TRIPOS>MOLECULE
*****
 36 39 0 0 0
SMALL
GASTEIGER

@<TRIPOS>ATOM
      1 O          64.2828   89.9084   15.0178 O.3     1  UNL1       -0.4741
      2 C          63.9718   88.4436   15.1046 C.ar    1  UNL1        0.1513
      3 C          64.2069   87.5554   13.9189 C.ar    1  UNL1        0.0688
      4 C          63.8958   86.0905   14.0058 C.ar    1  UNL1        0.1620
      5 F          64.1309   85.2024   12.8201 F       1  UNL1       -0.2026
      6 C          63.3498   85.5139   15.2783 C.ar    1  UNL1        0.1535
      7 C          63.1148   86.4021   16.4640 C.ar    1  UNL1        0.0369
      8 C          63.4258   87.8669   16.3772 C.ar    1  UNL1        0.0930
      9 CL         63.1907   88.7551   17.5629 Cl      1  UNL1       -0.0790
     10 S          63.0388   84.0491   15.3651 S.O2    1  UNL1        0.0769
     11 O          61.5714   84.3592   15.3407 O.2     1  UNL1       -0.1498
     12 O          64.5061   83.7390   15.3895 O.2     1  UNL1       -0.1498
     13 N          62.7277   82.5843   15.4519 N.pl3   1  UNL1       -0.1984
     14 H          62.5321   82.1735   16.3249 H       1  UNL1        0.1753
     15 C          62.7147   81.7453   14.2085 C.ar    1  UNL1        0.1542
     16 C          62.7681   82.2566   12.7993 C.ar    1  UNL1        0.0725
     17 S          62.7325   81.0751   11.8758 S.2     1  UNL1       -0.0625
     18 C          62.6571   79.8336   12.7142 C.ar    1  UNL1        0.1360
     19 N          62.6461   80.2478   14.1559 N.ar    1  UNL1       -0.2203
     20 C          63.5347   90.7780   14.0514 C.3     1  UNL1        0.2110
     21 N          65.8172   92.6098   14.7108 N.3     1  UNL1       -0.3218
     22 C          65.4129   92.3997   13.2816 C.3     1  UNL1        0.0588
     23 C          66.1498   93.1056   12.1822 C.3     1  UNL1        0.0206
     24 C          65.7454   92.8955   10.7531 C.3     1  UNL1        0.0271
     25 C          64.6042   91.9797   10.4234 C.2     1  UNL1       -0.0302
     26 C          63.8673   91.2739   11.5228 C.2     1  UNL1       -0.0218
     27 C          64.2716   91.4839   12.9519 C.3     1  UNL1        0.0798
     28 H          66.6040   93.2577   14.7498 H       1  UNL1        0.1188
     29 H          66.0911   91.7171   15.1213 H       1  UNL1        0.1188
     30 C          62.7260   90.3580   11.1931 C.ar    1  UNL1       -0.0040
     31 C          61.3330   90.9039   11.0860 C.ar    1  UNL1        0.0020
     32 C          60.1917   89.9880   10.7564 C.ar    1  UNL1        0.0296
     33 C          60.4435   88.5261   10.5338 C.ar    1  UNL1        0.1401
     34 F          59.3023   87.6102   10.2041 F       1  UNL1       -0.2042
     35 C          61.8365   87.9802   10.6409 C.ar    1  UNL1        0.0296
     36 C          62.9777   88.8961   10.9706 C.ar    1  UNL1        0.0020
@<TRIPOS>BOND
     1    22    21    1
     2    22    23    1
     3    23    24    1
     4    24    25    1
     5    25    26    2
     6    26    30    1
     7    30    31   ar
     8    31    32   ar
     9    32    33   ar
    10    33    34    1
    11    33    35   ar
    12    35    36   ar
    13    26    27    1
    14    27    20    1
    15    20     1    1
    16     1     2    1
    17     2     3   ar
    18     3     4   ar
    19     4     5    1
    20     4     6   ar
    21     6    10    1
    22    10    11    2
    23    10    12    2
    24    10    13    1
    25    13    15    1
    26    15    16   ar
    27    16    17   ar
    28    17    18   ar
    29    18    19   ar
    30     6     7   ar
    31     7     8   ar
    32     8     9    1
    33    27    22    1
    34     8     2   ar
    35    36    30   ar
    36    19    15   ar
    37    21    28    1
    38    21    29    1
    39    13    14    1
@<TRIPOS>MOLECULE
*****
 36 39 0 0 0
SMALL
GASTEIGER

@<TRIPOS>ATOM
      1 O          60.5889   87.9003   11.4195 O.3     1  UNL1       -0.4741
      2 C          61.6514   88.9428   11.6048 C.ar    1  UNL1        0.1513
      3 C          62.7129   88.7546   12.6477 C.ar    1  UNL1        0.0688
      4 C          63.7754   89.7972   12.8330 C.ar    1  UNL1        0.1620
      5 F          64.8370   89.6090   13.8759 F       1  UNL1       -0.2026
      6 C          63.7764   91.0277   11.9753 C.ar    1  UNL1        0.1535
      7 C          62.7148   91.2159   10.9324 C.ar    1  UNL1        0.0369
      8 C          61.6523   90.1734   10.7471 C.ar    1  UNL1        0.0930
      9 CL         60.5908   90.3616    9.7042 Cl      1  UNL1       -0.0790
     10 S          64.8388   92.0702   12.1606 S.O2    1  UNL1        0.0769
     11 O          64.5367   92.1171   13.6291 O.2     1  UNL1       -0.1498
     12 O          65.1409   92.0233   10.6922 O.2     1  UNL1       -0.1498
     13 N          65.9014   93.1127   12.3460 N.pl3   1  UNL1       -0.1984
     14 H          65.9530   93.8781   11.7289 H       1  UNL1        0.1753
     15 C          66.8852   92.9890   13.4715 C.ar    1  UNL1        0.1542
     16 C          66.8533   93.7581   14.7590 C.ar    1  UNL1        0.0725
     17 S          68.0220   93.3189   15.5904 S.2     1  UNL1       -0.0625
     18 C          68.7762   92.2784   14.8168 C.ar    1  UNL1        0.1360
     19 N          68.0737   92.0745   13.5072 N.ar    1  UNL1       -0.2203
     20 C          60.9630   86.4486   11.3702 C.3     1  UNL1        0.2110
     21 N          60.0449   87.3361    8.6556 N.3     1  UNL1       -0.3218
     22 C          61.1452   86.3245    8.7815 C.3     1  UNL1        0.0588
     23 C          61.7865   85.7567    7.5501 C.3     1  UNL1        0.0206
     24 C          62.8868   84.7450    7.6760 C.3     1  UNL1        0.0271
     25 C          63.3459   84.3012    9.0333 C.2     1  UNL1       -0.0302
     26 C          62.7046   84.8691   10.2647 C.2     1  UNL1       -0.0218
     27 C          61.6043   85.8807   10.1388 C.3     1  UNL1        0.0798
     28 H          59.8629   87.5195    7.6688 H       1  UNL1        0.1188
     29 H          60.3248   88.2020    9.1163 H       1  UNL1        0.1188
     30 C          63.1637   84.4253   11.6220 C.ar    1  UNL1       -0.0040
     31 C          63.4824   85.4438   12.6761 C.ar    1  UNL1        0.0020
     32 C          63.9415   85.0000   14.0334 C.ar    1  UNL1        0.0296
     33 C          64.0818   83.5376   14.3367 C.ar    1  UNL1        0.1401
     34 F          64.5408   83.0938   15.6940 F       1  UNL1       -0.2042
     35 C          63.7630   82.5191   13.2826 C.ar    1  UNL1        0.0296
     36 C          63.3039   82.9629   11.9253 C.ar    1  UNL1        0.0020
@<TRIPOS>BOND
     1    22    21    1
     2    22    23    1
     3    23    24    1
     4    24    25    1
     5    25    26    2
     6    26    30    1
     7    30    31   ar
     8    31    32   ar
     9    32    33   ar
    10    33    34    1
    11    33    35   ar
    12    35    36   ar
    13    26    27    1
    14    27    20    1
    15    20     1    1
    16     1     2    1
    17     2     3   ar
    18     3     4   ar
    19     4     5    1
    20     4     6   ar
    21     6    10    1
    22    10    11    2
    23    10    12    2
    24    10    13    1
    25    13    15    1
    26    15    16   ar
    27    16    17   ar
    28    17    18   ar
    29    18    19   ar
    30     6     7   ar
    31     7     8   ar
    32     8     9    1
    33    27    22    1
    34     8     2   ar
    35    36    30   ar
    36    19    15   ar
    37    21    28    1
    38    21    29    1
    39    13    14    1
@<TRIPOS>MOLECULE
*****
 36 39 0 0 0
SMALL
GASTEIGER

@<TRIPOS>ATOM
      1 O          63.4683   87.7676   14.0431 O.3     1  UNL1       -0.4741
      2 C          64.0457   89.1128   13.7162 C.ar    1  UNL1        0.1513
      3 C          65.1418   89.6850   14.5655 C.ar    1  UNL1        0.0688
      4 C          65.7192   91.0303   14.2386 C.ar    1  UNL1        0.1620
      5 F          66.8152   91.6025   15.0878 F       1  UNL1       -0.2026
      6 C          65.2006   91.8034   13.0624 C.ar    1  UNL1        0.1535
      7 C          64.1046   91.2312   12.2131 C.ar    1  UNL1        0.0369
      8 C          63.5271   89.8859   12.5400 C.ar    1  UNL1        0.0930
      9 CL         62.4311   89.3137   11.6907 Cl      1  UNL1       -0.0790
     10 S          65.7781   93.1486   12.7355 S.O2    1  UNL1        0.0769
     11 O          65.7571   93.5112   14.1908 O.2     1  UNL1       -0.1498
     12 O          65.7990   92.7859   11.2802 O.2     1  UNL1       -0.1498
     13 N          66.3555   94.4939   12.4086 N.pl3   1  UNL1       -0.1984
     14 H          66.5350   95.1407   13.1288 H       1  UNL1        0.1753
     15 C          66.6595   94.8536   10.9845 C.ar    1  UNL1        0.1542
     16 C          65.9140   95.8515   10.1488 C.ar    1  UNL1        0.0725
     17 S          66.5561   95.8933    8.7938 S.2     1  UNL1       -0.0625
     18 C          67.6985   94.9212    8.7921 C.ar    1  UNL1        0.1360
     19 N          67.7625   94.2786   10.1460 N.ar    1  UNL1       -0.2203
     20 C          63.8802   86.5621   13.2512 C.3     1  UNL1        0.2110
     21 N          64.3082   85.7036   16.0938 N.3     1  UNL1       -0.3218
     22 C          63.6691   84.7640   15.1147 C.3     1  UNL1        0.0588
     23 C          63.2440   83.3952   15.5568 C.3     1  UNL1        0.0206
     24 C          62.6049   82.4555   14.5777 C.3     1  UNL1        0.0271
     25 C          62.3909   82.8847   13.1565 C.2     1  UNL1       -0.0302
     26 C          62.8160   84.2535   12.7143 C.2     1  UNL1       -0.0218
     27 C          63.4551   85.1932   13.6934 C.3     1  UNL1        0.0798
     28 H          64.3749   85.2511   17.0054 H       1  UNL1        0.1188
     29 H          63.7417   86.5481   16.1740 H       1  UNL1        0.1188
     30 C          62.6020   84.6828   11.2930 C.ar    1  UNL1       -0.0040
     31 C          61.5401   85.6902   10.9656 C.ar    1  UNL1        0.0020
     32 C          61.3261   86.1195    9.5443 C.ar    1  UNL1        0.0296
     33 C          62.1741   85.5413    8.4505 C.ar    1  UNL1        0.1401
     34 F          61.9602   85.9705    7.0293 F       1  UNL1       -0.2042
     35 C          63.2362   84.5338    8.7780 C.ar    1  UNL1        0.0296
     36 C          63.4501   84.1046   10.1992 C.ar    1  UNL1        0.0020
@<TRIPOS>BOND
     1    22    21    1
     2    22    23    1
     3    23    24    1
     4    24    25    1
     5    25    26    2
     6    26    30    1
     7    30    31   ar
     8    31    32   ar
     9    32    33   ar
    10    33    34    1
    11    33    35   ar
    12    35    36   ar
    13    26    27    1
    14    27    20    1
    15    20     1    1
    16     1     2    1
    17     2     3   ar
    18     3     4   ar
    19     4     5    1
    20     4     6   ar
    21     6    10    1
    22    10    11    2
    23    10    12    2
    24    10    13    1
    25    13    15    1
    26    15    16   ar
    27    16    17   ar
    28    17    18   ar
    29    18    19   ar
    30     6     7   ar
    31     7     8   ar
    32     8     9    1
    33    27    22    1
    34     8     2   ar
    35    36    30   ar
    36    19    15   ar
    37    21    28    1
    38    21    29    1
    39    13    14    1
@<TRIPOS>MOLECULE
*****
 36 39 0 0 0
SMALL
GASTEIGER

@<TRIPOS>ATOM
      1 O          60.6761   88.0790   11.5479 O.3     1  UNL1       -0.4741
      2 C          61.7689   89.0952   11.6998 C.ar    1  UNL1        0.1513
      3 C          62.8196   88.9146   12.7550 C.ar    1  UNL1        0.0688
      4 C          63.9124   89.9308   12.9069 C.ar    1  UNL1        0.1620
      5 F          64.9631   89.7502   13.9621 F       1  UNL1       -0.2026
      6 C          63.9546   91.1275   12.0036 C.ar    1  UNL1        0.1535
      7 C          62.9039   91.3081   10.9484 C.ar    1  UNL1        0.0369
      8 C          61.8111   90.2920   10.7964 C.ar    1  UNL1        0.0930
      9 CL         60.7604   90.4726    9.7412 Cl      1  UNL1       -0.0790
     10 S          65.0474   92.1437   12.1555 S.O2    1  UNL1        0.0769
     11 O          64.6979   92.3028   13.6054 O.2     1  UNL1       -0.1498
     12 O          65.3970   91.9845   10.7055 O.2     1  UNL1       -0.1498
     13 N          66.1403   93.1599   12.3075 N.pl3   1  UNL1       -0.1984
     14 H          66.6259   93.2367   13.1604 H       1  UNL1        0.1753
     15 C          66.4933   94.0590   11.1598 C.ar    1  UNL1        0.1542
     16 C          65.7774   95.3196   10.7748 C.ar    1  UNL1        0.0725
     17 S          66.4658   95.8950    9.5727 S.2     1  UNL1       -0.0625
     18 C          67.6072   94.9900    9.2148 C.ar    1  UNL1        0.1360
     19 N          67.6243   93.8552   10.1957 N.ar    1  UNL1       -0.2203
     20 C          61.0119   86.6179   11.5002 C.3     1  UNL1        0.2110
     21 N          60.0741   87.5428    8.8048 N.3     1  UNL1       -0.3218
     22 C          61.1344   86.4869    8.9083 C.3     1  UNL1        0.0588
     23 C          61.7258   85.8934    7.6642 C.3     1  UNL1        0.0206
     24 C          62.7861   84.8375    7.7677 C.3     1  UNL1        0.0271
     25 C          63.2550   84.3750    9.1153 C.2     1  UNL1       -0.0302
     26 C          62.6636   84.9685   10.3595 C.2     1  UNL1       -0.0218
     27 C          61.6033   86.0244   10.2560 C.3     1  UNL1        0.0798
     28 H          59.8791   87.7337    7.8220 H       1  UNL1        0.1188
     29 H          60.3988   88.3964    9.2590 H       1  UNL1        0.1188
     30 C          63.1325   84.5060   11.7072 C.ar    1  UNL1       -0.0040
     31 C          63.2353   83.0390   12.0028 C.ar    1  UNL1        0.0020
     32 C          63.7042   82.5766   13.3506 C.ar    1  UNL1        0.0296
     33 C          64.0703   83.5811   14.4026 C.ar    1  UNL1        0.1401
     34 F          64.5391   83.1187   15.7503 F       1  UNL1       -0.2042
     35 C          63.9675   85.0481   14.1070 C.ar    1  UNL1        0.0296
     36 C          63.4986   85.5105   12.7593 C.ar    1  UNL1        0.0020
@<TRIPOS>BOND
     1    22    21    1
     2    22    23    1
     3    23    24    1
     4    24    25    1
     5    25    26    2
     6    26    30    1
     7    30    31   ar
     8    31    32   ar
     9    32    33   ar
    10    33    34    1
    11    33    35   ar
    12    35    36   ar
    13    26    27    1
    14    27    20    1
    15    20     1    1
    16     1     2    1
    17     2     3   ar
    18     3     4   ar
    19     4     5    1
    20     4     6   ar
    21     6    10    1
    22    10    11    2
    23    10    12    2
    24    10    13    1
    25    13    15    1
    26    15    16   ar
    27    16    17   ar
    28    17    18   ar
    29    18    19   ar
    30     6     7   ar
    31     7     8   ar
    32     8     9    1
    33    27    22    1
    34     8     2   ar
    35    36    30   ar
    36    19    15   ar
    37    21    28    1
    38    21    29    1
    39    13    14    1
@<TRIPOS>MOLECULE
*****
 36 39 0 0 0
SMALL
GASTEIGER

@<TRIPOS>ATOM
      1 O          63.0564   90.9331   12.5457 O.3     1  UNL1       -0.4741
      2 C          62.9091   89.4660   12.2708 C.ar    1  UNL1        0.1513
      3 C          63.6234   88.4662   13.1311 C.ar    1  UNL1        0.0688
      4 C          63.4761   86.9990   12.8561 C.ar    1  UNL1        0.1620
      5 F          64.1904   85.9992   13.7164 F       1  UNL1       -0.2026
      6 C          62.6143   86.5315   11.7209 C.ar    1  UNL1        0.1535
      7 C          61.8999   87.5313   10.8605 C.ar    1  UNL1        0.0369
      8 C          62.0473   88.9984   11.1354 C.ar    1  UNL1        0.0930
      9 CL         61.3329   89.9982   10.2751 Cl      1  UNL1       -0.0790
     10 S          62.4670   85.0644   11.4459 S.O2    1  UNL1        0.0769
     11 O          62.0188   84.8443   12.8604 O.2     1  UNL1       -0.1498
     12 O          62.9151   85.2844   10.0315 O.2     1  UNL1       -0.1498
     13 N          62.3196   83.5971   11.1710 N.pl3   1  UNL1       -0.1984
     14 H          61.8901   83.2928   10.3391 H       1  UNL1        0.1753
     15 C          62.8267   82.5934   12.1638 C.ar    1  UNL1        0.1542
     16 C          62.0216   81.5010   12.8028 C.ar    1  UNL1        0.0725
     17 S          62.9252   80.7384   13.7257 S.2     1  UNL1       -0.0625
     18 C          64.2889   81.3595   13.6572 C.ar    1  UNL1        0.1360
     19 N          64.2280   82.5060   12.6918 N.ar    1  UNL1       -0.2203
     20 C          64.3639   91.6184   12.2797 C.3     1  UNL1        0.2110
     21 N          63.4780   91.1216   15.1026 N.3     1  UNL1       -0.3218
     22 C          64.7948   91.7887   14.8362 C.3     1  UNL1        0.0588
     23 C          65.6687   92.2075   15.9812 C.3     1  UNL1        0.0206
     24 C          66.9855   92.8746   15.7148 C.3     1  UNL1        0.0271
     25 C          67.4284   93.1230   14.3034 C.2     1  UNL1       -0.0302
     26 C          66.5546   92.7043   13.1584 C.2     1  UNL1       -0.0218
     27 C          65.2378   92.0372   13.4248 C.3     1  UNL1        0.0798
     28 H          63.3390   91.0334   16.1092 H       1  UNL1        0.1188
     29 H          63.4740   90.1949   14.6763 H       1  UNL1        0.1188
     30 C          66.9975   92.9527   11.7470 C.ar    1  UNL1       -0.0040
     31 C          66.5304   94.1781   11.0190 C.ar    1  UNL1        0.0020
     32 C          66.9733   94.4266    9.6075 C.ar    1  UNL1        0.0296
     33 C          67.8834   93.4495    8.9241 C.ar    1  UNL1        0.1401
     34 F          68.3264   93.6978    7.5127 F       1  UNL1       -0.2042
     35 C          68.3506   92.2240    9.6522 C.ar    1  UNL1        0.0296
     36 C          67.9077   91.9756   11.0636 C.ar    1  UNL1        0.0020
@<TRIPOS>BOND
     1    22    21    1
     2    22    23    1
     3    23    24    1
     4    24    25    1
     5    25    26    2
     6    26    30    1
     7    30    31   ar
     8    31    32   ar
     9    32    33   ar
    10    33    34    1
    11    33    35   ar
    12    35    36   ar
    13    26    27    1
    14    27    20    1
    15    20     1    1
    16     1     2    1
    17     2     3   ar
    18     3     4   ar
    19     4     5    1
    20     4     6   ar
    21     6    10    1
    22    10    11    2
    23    10    12    2
    24    10    13    1
    25    13    15    1
    26    15    16   ar
    27    16    17   ar
    28    17    18   ar
    29    18    19   ar
    30     6     7   ar
    31     7     8   ar
    32     8     9    1
    33    27    22    1
    34     8     2   ar
    35    36    30   ar
    36    19    15   ar
    37    21    28    1
    38    21    29    1
    39    13    14    1
@<TRIPOS>MOLECULE
*****
 36 39 0 0 0
SMALL
GASTEIGER

@<TRIPOS>ATOM
      1 O          61.7494   88.9692   12.6110 O.3     1  UNL1       -0.4741
      2 C          62.8341   89.9839   12.4019 C.ar    1  UNL1        0.1513
      3 C          62.8381   90.8336   11.1658 C.ar    1  UNL1        0.0688
      4 C          63.9230   91.8483   10.9568 C.ar    1  UNL1        0.1620
      5 F          63.9270   92.6981    9.7207 F       1  UNL1       -0.2026
      6 C          65.0037   92.0132   11.9838 C.ar    1  UNL1        0.1535
      7 C          64.9997   91.1634   13.2198 C.ar    1  UNL1        0.0369
      8 C          63.9149   90.1488   13.4289 C.ar    1  UNL1        0.0930
      9 CL         63.9109   89.2990   14.6650 Cl      1  UNL1       -0.0790
     10 S          66.0884   93.0278   11.7747 S.O2    1  UNL1        0.0769
     11 O          66.7336   92.1294   10.7615 O.2     1  UNL1       -0.1498
     12 O          65.4433   93.9263   12.7878 O.2     1  UNL1       -0.1498
     13 N          67.1733   94.0425   11.5655 N.pl3   1  UNL1       -0.1984
     14 H          67.9264   94.0953   12.1974 H       1  UNL1        0.1753
     15 C          67.1106   94.9767   10.3936 C.ar    1  UNL1        0.1542
     16 C          66.2600   96.2080   10.2921 C.ar    1  UNL1        0.0725
     17 S          66.5112   96.8359    8.9532 S.2     1  UNL1       -0.0625
     18 C          67.5171   95.9927    8.2272 C.ar    1  UNL1        0.1360
     19 N          67.8876   94.8436    9.1174 N.ar    1  UNL1       -0.2203
     20 C          61.8229   87.6395   11.9207 C.3     1  UNL1        0.2110
     21 N          59.9971   89.7499   10.8193 N.3     1  UNL1       -0.3218
     22 C          60.2890   88.5171   10.0162 C.3     1  UNL1        0.0588
     23 C          59.6680   88.3395    8.6624 C.3     1  UNL1        0.0206
     24 C          59.9599   87.1067    7.8592 C.3     1  UNL1        0.0271
     25 C          60.8728   86.0516    8.4099 C.2     1  UNL1       -0.0302
     26 C          61.4938   86.2292    9.7636 C.2     1  UNL1       -0.0218
     27 C          61.2019   87.4619   10.5668 C.3     1  UNL1        0.0798
     28 H          59.3632   90.3541   10.2965 H       1  UNL1        0.1188
     29 H          60.8672   90.2490   11.0045 H       1  UNL1        0.1188
     30 C          62.4068   85.1740   10.3143 C.ar    1  UNL1       -0.0040
     31 C          62.3953   84.8638   11.7818 C.ar    1  UNL1        0.0020
     32 C          63.3083   83.8086   12.3325 C.ar    1  UNL1        0.0296
     33 C          64.2326   83.0637   11.4157 C.ar    1  UNL1        0.1401
     34 F          65.1455   82.0085   11.9663 F       1  UNL1       -0.2042
     35 C          64.2440   83.3739    9.9481 C.ar    1  UNL1        0.0296
     36 C          63.3311   84.4290    9.3975 C.ar    1  UNL1        0.0020
@<TRIPOS>BOND
     1    22    21    1
     2    22    23    1
     3    23    24    1
     4    24    25    1
     5    25    26    2
     6    26    30    1
     7    30    31   ar
     8    31    32   ar
     9    32    33   ar
    10    33    34    1
    11    33    35   ar
    12    35    36   ar
    13    26    27    1
    14    27    20    1
    15    20     1    1
    16     1     2    1
    17     2     3   ar
    18     3     4   ar
    19     4     5    1
    20     4     6   ar
    21     6    10    1
    22    10    11    2
    23    10    12    2
    24    10    13    1
    25    13    15    1
    26    15    16   ar
    27    16    17   ar
    28    17    18   ar
    29    18    19   ar
    30     6     7   ar
    31     7     8   ar
    32     8     9    1
    33    27    22    1
    34     8     2   ar
    35    36    30   ar
    36    19    15   ar
    37    21    28    1
    38    21    29    1
    39    13    14    1
@<TRIPOS>MOLECULE
*****
 36 39 0 0 0
SMALL
GASTEIGER

@<TRIPOS>ATOM
      1 O          62.4489   87.3117   13.0135 O.3     1  UNL1       -0.4741
      2 C          63.1124   88.6394   12.7973 C.ar    1  UNL1        0.1513
      3 C          62.7558   89.4700   11.6002 C.ar    1  UNL1        0.0688
      4 C          63.4194   90.7978   11.3840 C.ar    1  UNL1        0.1620
      5 F          63.0628   91.6283   10.1870 F       1  UNL1       -0.2026
      6 C          64.4395   91.2949   12.3649 C.ar    1  UNL1        0.1535
      7 C          64.7961   90.4644   13.5620 C.ar    1  UNL1        0.0369
      8 C          64.1326   89.1366   13.7782 C.ar    1  UNL1        0.0930
      9 CL         64.4892   88.3061   14.9753 Cl      1  UNL1       -0.0790
     10 S          65.1030   92.6227   12.1487 S.O2    1  UNL1        0.0769
     11 O          65.3797   92.7239   13.6194 O.2     1  UNL1       -0.1498
     12 O          64.8264   92.5214   10.6779 O.2     1  UNL1       -0.1498
     13 N          65.7666   93.9505   11.9325 N.pl3   1  UNL1       -0.1984
     14 H          65.6509   94.6719   12.5924 H       1  UNL1        0.1753
     15 C          66.6066   94.1791   10.7109 C.ar    1  UNL1        0.1542
     16 C          66.4611   95.3137    9.7406 C.ar    1  UNL1        0.0725
     17 S          67.5041   95.1491    8.6752 S.2     1  UNL1       -0.0625
     18 C          68.2941   93.9127    8.9870 C.ar    1  UNL1        0.1360
     19 N          67.7395   93.3132   10.2452 N.ar    1  UNL1       -0.2203
     20 C          61.7528   86.6268   11.8749 C.3     1  UNL1        0.2110
     21 N          63.6413   84.7158   13.2098 N.3     1  UNL1       -0.3218
     22 C          63.4251   84.6439   11.7272 C.3     1  UNL1        0.0588
     23 C          64.1531   83.6166   10.9120 C.3     1  UNL1        0.0206
     24 C          63.9369   83.5447    9.4294 C.3     1  UNL1        0.0271
     25 C          62.9927   84.5002    8.7620 C.2     1  UNL1       -0.0302
     26 C          62.2647   85.5275    9.5772 C.2     1  UNL1       -0.0218
     27 C          62.4809   85.5994   11.0598 C.3     1  UNL1        0.0798
     28 H          64.3093   83.9981   13.4911 H       1  UNL1        0.1188
     29 H          62.7548   84.5624   13.6905 H       1  UNL1        0.1188
     30 C          61.3204   86.4831    8.9097 C.ar    1  UNL1       -0.0040
     31 C          60.2938   85.9710    7.9434 C.ar    1  UNL1        0.0020
     32 C          59.3495   86.9265    7.2760 C.ar    1  UNL1        0.0296
     33 C          59.4319   88.3941    7.5750 C.ar    1  UNL1        0.1401
     34 F          58.4877   89.3496    6.9076 F       1  UNL1       -0.2042
     35 C          60.4586   88.9062    8.5413 C.ar    1  UNL1        0.0296
     36 C          61.4028   87.9506    9.2087 C.ar    1  UNL1        0.0020
@<TRIPOS>BOND
     1    22    21    1
     2    22    23    1
     3    23    24    1
     4    24    25    1
     5    25    26    2
     6    26    30    1
     7    30    31   ar
     8    31    32   ar
     9    32    33   ar
    10    33    34    1
    11    33    35   ar
    12    35    36   ar
    13    26    27    1
    14    27    20    1
    15    20     1    1
    16     1     2    1
    17     2     3   ar
    18     3     4   ar
    19     4     5    1
    20     4     6   ar
    21     6    10    1
    22    10    11    2
    23    10    12    2
    24    10    13    1
    25    13    15    1
    26    15    16   ar
    27    16    17   ar
    28    17    18   ar
    29    18    19   ar
    30     6     7   ar
    31     7     8   ar
    32     8     9    1
    33    27    22    1
    34     8     2   ar
    35    36    30   ar
    36    19    15   ar
    37    21    28    1
    38    21    29    1
    39    13    14    1
