@<TRIPOS>MOLECULE
*****
 36 39 0 0 0
SMALL
GASTEIGER

@<TRIPOS>ATOM
      1 N          60.8787   87.4777    9.6221 N.pl3   1  UNL1       -0.2869
      2 C          60.1616   86.6176    8.6241 C.3     1  UNL1        0.0926
      3 C          59.4821   87.5204    7.6376 C.3     1  UNL1        0.0237
      4 C          59.7793   88.9385    8.0258 C.3     1  UNL1        0.0309
      5 C          60.6425   88.9121    9.2523 C.3     1  UNL1        0.1508
      6 C          62.5398   85.0368   12.2740 C.ar    1  UNL1        0.1362
      7 C          61.7288   85.5254   11.1106 C.ar    1  UNL1        0.0686
      8 C          61.6897   86.9892   10.7856 C.ar    1  UNL1        0.1364
      9 N          62.4616   87.9645   11.6240 N.ar    1  UNL1       -0.2083
     10 C          63.2726   87.4759   12.7874 C.ar    1  UNL1        0.2374
     11 N          63.3116   86.0121   13.1124 N.ar    1  UNL1       -0.2083
     12 C          62.6962   79.1814   13.5740 C.3     1  UNL1        0.0897
     13 N          62.6571   80.6452   13.2490 N.3     1  UNL1       -0.2686
     14 C          62.2946   81.6400   14.3116 C.3     1  UNL1        0.0939
     15 C          62.2555   83.1038   13.9866 C.3     1  UNL1        0.1095
     16 N          62.5789   83.5729   12.5990 N.pl3   1  UNL1       -0.2903
     17 C          62.9414   82.5782   11.5365 C.3     1  UNL1        0.1095
     18 C          62.9805   81.1143   11.8615 C.3     1  UNL1        0.0939
     19 C          64.0445   88.4512   13.6259 C.3     1  UNL1        0.4524
     20 F          64.8163   89.4265   14.4644 F       1  UNL1       -0.1632
     21 F          63.4721   89.5873   12.8312 F       1  UNL1       -0.1632
     22 F          64.6168   87.3151   14.4206 F       1  UNL1       -0.1632
     23 C          61.1757   90.1098    9.9810 C.2     1  UNL1        0.2405
     24 O          60.2644   90.9274   10.8478 O.2     1  UNL1       -0.2733
     25 N          62.6201   90.4900    9.8432 N.am    1  UNL1       -0.3027
     26 H          63.2182   89.9534    9.2743 H       1  UNL1        0.1495
     27 C          63.1534   91.6878   10.5719 C.3     1  UNL1        0.0941
     28 C          64.5788   92.1116   10.3759 C.3     1  UNL1        0.0476
     29 C          65.5076   92.1859   11.5514 C.ar    1  UNL1       -0.0204
     30 C          64.9519   92.2912   12.9408 C.ar    1  UNL1       -0.0035
     31 C          65.8807   92.3655   14.1163 C.ar    1  UNL1        0.0100
     32 C          67.3651   92.3345   13.9026 C.ar    1  UNL1        0.0684
     33 C          67.9207   92.2292   12.5133 C.ar    1  UNL1        0.0100
     34 C          66.9920   92.1549   11.3376 C.ar    1  UNL1       -0.0035
     35 C          68.2939   92.4087   15.0781 C.1     1  UNL1        0.1004
     36 N          69.2226   92.4829   16.2536 N.1     1  UNL1       -0.1908
@<TRIPOS>BOND
     1    12    13    1
     2    13    14    1
     3    14    15    1
     4    15    16    1
     5    16     6    1
     6     6     7   ar
     7     7     8   ar
     8     8     1    1
     9     1     2    1
    10     2     3    1
    11     3     4    1
    12     4     5    1
    13     5    23    1
    14    23    24    2
    15    23    25   am
    16    25    27    1
    17    27    28    1
    18    28    29    1
    19    29    30   ar
    20    30    31   ar
    21    31    32   ar
    22    32    35    1
    23    35    36    3
    24    32    33   ar
    25    33    34   ar
    26     8     9   ar
    27     9    10   ar
    28    10    19    1
    29    19    20    1
    30    19    21    1
    31    19    22    1
    32    10    11   ar
    33    16    17    1
    34    17    18    1
    35    18    13    1
    36    11     6   ar
    37     5     1    1
    38    34    29   ar
    39    25    26    1
@<TRIPOS>MOLECULE
*****
 36 39 0 0 0
SMALL
GASTEIGER

@<TRIPOS>ATOM
      1 N          67.3304   92.7864   14.4105 N.pl3   1  UNL1       -0.2869
      2 C          68.7975   93.0690   14.5438 C.3     1  UNL1        0.0926
      3 C          69.1831   92.8516   15.9770 C.3     1  UNL1        0.0237
      4 C          67.9543   92.4346   16.7294 C.3     1  UNL1        0.0309
      5 C          66.8093   92.3942   15.7613 C.3     1  UNL1        0.1508
      6 C          64.6664   91.9474   11.5911 C.ar    1  UNL1        0.1362
      7 C          65.4710   91.8544   12.8535 C.ar    1  UNL1        0.0686
      8 C          66.5258   92.8795   13.1479 C.ar    1  UNL1        0.1364
      9 N          66.7759   93.9976   12.1799 N.ar    1  UNL1       -0.2083
     10 C          65.9713   94.0906   10.9174 C.ar    1  UNL1        0.2374
     11 N          64.9165   93.0656   10.6230 N.ar    1  UNL1       -0.2083
     12 C          60.4472   87.8472   10.4135 C.3     1  UNL1        0.0897
     13 N          61.5020   88.8722   10.7079 N.3     1  UNL1       -0.2686
     14 C          62.3689   88.7285   11.9235 C.3     1  UNL1        0.0939
     15 C          63.4237   89.7536   12.2179 C.3     1  UNL1        0.1095
     16 N          63.6116   90.9224   11.2967 N.pl3   1  UNL1       -0.2903
     17 C          62.7446   91.0661   10.0811 C.3     1  UNL1        0.1095
     18 C          61.6898   90.0410    9.7867 C.3     1  UNL1        0.0939
     19 C          66.2214   95.2088    9.9493 C.3     1  UNL1        0.4524
     20 F          66.4715   96.3269    8.9812 F       1  UNL1       -0.1632
     21 F          64.8425   95.7401   10.2068 F       1  UNL1       -0.1632
     22 F          67.6002   94.6774    9.6917 F       1  UNL1       -0.1632
     23 C          65.3920   92.0264   16.0868 C.2     1  UNL1        0.2405
     24 O          64.5709   92.9158   16.9728 O.2     1  UNL1       -0.2733
     25 N          64.7958   90.7693   15.5264 N.am    1  UNL1       -0.3027
     26 H          65.3347   90.1855   14.9450 H       1  UNL1        0.1495
     27 C          63.3785   90.4014   15.8520 C.3     1  UNL1        0.0941
     28 C          63.0953   89.3028   16.8332 C.3     1  UNL1        0.0476
     29 C          63.2352   87.8691   16.4149 C.ar    1  UNL1       -0.0204
     30 C          62.5459   86.7894   17.1956 C.ar    1  UNL1       -0.0035
     31 C          62.6859   85.3557   16.7773 C.ar    1  UNL1        0.0100
     32 C          63.5150   85.0016   15.5784 C.ar    1  UNL1        0.0684
     33 C          64.2043   86.0813   14.7979 C.ar    1  UNL1        0.0100
     34 C          64.0644   87.5151   15.2161 C.ar    1  UNL1       -0.0035
     35 C          63.6550   83.5680   15.1602 C.1     1  UNL1        0.1004
     36 N          63.7950   82.1343   14.7419 N.1     1  UNL1       -0.1908
@<TRIPOS>BOND
     1    12    13    1
     2    13    14    1
     3    14    15    1
     4    15    16    1
     5    16     6    1
     6     6     7   ar
     7     7     8   ar
     8     8     1    1
     9     1     2    1
    10     2     3    1
    11     3     4    1
    12     4     5    1
    13     5    23    1
    14    23    24    2
    15    23    25   am
    16    25    27    1
    17    27    28    1
    18    28    29    1
    19    29    30   ar
    20    30    31   ar
    21    31    32   ar
    22    32    35    1
    23    35    36    3
    24    32    33   ar
    25    33    34   ar
    26     8     9   ar
    27     9    10   ar
    28    10    19    1
    29    19    20    1
    30    19    21    1
    31    19    22    1
    32    10    11   ar
    33    16    17    1
    34    17    18    1
    35    18    13    1
    36    11     6   ar
    37     5     1    1
    38    34    29   ar
    39    25    26    1
@<TRIPOS>MOLECULE
*****
 36 39 0 0 0
SMALL
GASTEIGER

@<TRIPOS>ATOM
      1 N          62.4718   86.2430   10.0403 N.pl3   1  UNL1       -0.2869
      2 C          62.7251   86.0015    8.5817 C.3     1  UNL1        0.0926
      3 C          63.1131   84.5626    8.4106 C.3     1  UNL1        0.0237
      4 C          63.0994   83.9149    9.7636 C.3     1  UNL1        0.0309
      5 C          62.7031   84.9534   10.7707 C.3     1  UNL1        0.1508
      6 C          62.6480   89.9542   11.4354 C.ar    1  UNL1        0.1362
      7 C          63.0603   88.6517   10.8160 C.ar    1  UNL1        0.0686
      8 C          62.0594   87.5455   10.6598 C.ar    1  UNL1        0.1364
      9 N          60.6463   87.7416   11.1229 N.ar    1  UNL1       -0.2083
     10 C          60.2340   89.0440   11.7423 C.ar    1  UNL1        0.2374
     11 N          61.2349   90.1503   11.8985 N.ar    1  UNL1       -0.2083
     12 C          66.6514   94.3793   12.0603 C.3     1  UNL1        0.0897
     13 N          65.6506   93.2730   11.9041 N.3     1  UNL1       -0.2686
     14 C          65.2938   92.4128   13.0799 C.3     1  UNL1        0.0939
     15 C          64.2930   91.3065   12.9237 C.3     1  UNL1        0.1095
     16 N          63.6489   91.0605   11.5916 N.pl3   1  UNL1       -0.2903
     17 C          64.0056   91.9207   10.4157 C.3     1  UNL1        0.1095
     18 C          65.0064   93.0270   10.5720 C.3     1  UNL1        0.0939
     19 C          58.8208   89.2402   12.2055 C.3     1  UNL1        0.4524
     20 F          57.4077   89.4363   12.6687 F       1  UNL1       -0.1632
     21 F          58.8639   87.9111   12.8996 F       1  UNL1       -0.1632
     22 F          58.7778   90.5692   11.5114 F       1  UNL1       -0.1632
     23 C          62.5627   84.7398   12.2488 C.2     1  UNL1        0.2405
     24 O          61.6047   85.5800   13.0403 O.2     1  UNL1       -0.2733
     25 N          63.3802   83.6862   12.9354 N.am    1  UNL1       -0.3027
     26 H          64.0090   83.1348   12.4159 H       1  UNL1        0.1495
     27 C          63.2398   83.4726   14.4134 C.3     1  UNL1        0.0941
     28 C          64.1518   84.1891   15.3647 C.3     1  UNL1        0.0476
     29 C          63.9814   85.6604   15.6024 C.ar    1  UNL1       -0.0204
     30 C          64.5451   86.6482   14.6243 C.ar    1  UNL1       -0.0035
     31 C          64.3748   88.1194   14.8620 C.ar    1  UNL1        0.0100
     32 C          63.6409   88.6029   16.0776 C.ar    1  UNL1        0.0684
     33 C          63.0772   87.6150   17.0556 C.ar    1  UNL1        0.0100
     34 C          63.2475   86.1437   16.8180 C.ar    1  UNL1       -0.0035
     35 C          63.4706   90.0741   16.3153 C.1     1  UNL1        0.1004
     36 N          63.3003   91.5453   16.5529 N.1     1  UNL1       -0.1908
@<TRIPOS>BOND
     1    12    13    1
     2    13    14    1
     3    14    15    1
     4    15    16    1
     5    16     6    1
     6     6     7   ar
     7     7     8   ar
     8     8     1    1
     9     1     2    1
    10     2     3    1
    11     3     4    1
    12     4     5    1
    13     5    23    1
    14    23    24    2
    15    23    25   am
    16    25    27    1
    17    27    28    1
    18    28    29    1
    19    29    30   ar
    20    30    31   ar
    21    31    32   ar
    22    32    35    1
    23    35    36    3
    24    32    33   ar
    25    33    34   ar
    26     8     9   ar
    27     9    10   ar
    28    10    19    1
    29    19    20    1
    30    19    21    1
    31    19    22    1
    32    10    11   ar
    33    16    17    1
    34    17    18    1
    35    18    13    1
    36    11     6   ar
    37     5     1    1
    38    34    29   ar
    39    25    26    1
@<TRIPOS>MOLECULE
*****
 36 39 0 0 0
SMALL
GASTEIGER

@<TRIPOS>ATOM
      1 N          63.4809   87.6374   15.9808 N.pl3   1  UNL1       -0.2869
      2 C          62.7489   87.8667   17.2698 C.3     1  UNL1        0.0926
      3 C          62.5682   86.5384   17.9429 C.3     1  UNL1        0.0237
      4 C          63.1886   85.4882   17.0698 C.3     1  UNL1        0.0309
      5 C          63.7527   86.1674   15.8572 C.3     1  UNL1        0.1508
      6 C          65.3199   90.7536   14.3506 C.ar    1  UNL1        0.1362
      7 C          64.9284   89.6982   15.3419 C.ar    1  UNL1        0.0686
      8 C          63.8724   88.6929   14.9894 C.ar    1  UNL1        0.1364
      9 N          63.2079   88.7430   13.6456 N.ar    1  UNL1       -0.2083
     10 C          63.5994   89.7984   12.6543 C.ar    1  UNL1        0.2374
     11 N          64.6554   90.8037   13.0068 N.ar    1  UNL1       -0.2083
     12 C          69.5439   94.7747   15.7606 C.3     1  UNL1        0.0897
     13 N          68.4879   93.7694   15.4081 N.3     1  UNL1       -0.2686
     14 C          67.2923   94.1879   14.6048 C.3     1  UNL1        0.0939
     15 C          66.2363   93.1827   14.2523 C.3     1  UNL1        0.1095
     16 N          66.3759   91.7589   14.7031 N.pl3   1  UNL1       -0.2903
     17 C          67.5715   91.3404   15.5065 C.3     1  UNL1        0.1095
     18 C          68.6275   92.3456   15.8590 C.3     1  UNL1        0.0939
     19 C          62.9349   89.8486   11.3104 C.3     1  UNL1        0.4524
     20 F          62.2704   89.8988    9.9666 F       1  UNL1       -0.1632
     21 F          63.0782   88.3609   11.1840 F       1  UNL1       -0.1632
     22 F          62.7916   91.3364   11.4367 F       1  UNL1       -0.1632
     23 C          64.4637   85.4947   14.7206 C.2     1  UNL1        0.2405
     24 O          65.9572   85.5831   14.6129 O.2     1  UNL1       -0.2733
     25 N          63.6813   84.7338   13.6917 N.am    1  UNL1       -0.3027
     26 H          62.7010   84.6758   13.7624 H       1  UNL1        0.1495
     27 C          64.3923   84.0611   12.5550 C.3     1  UNL1        0.0941
     28 C          63.6273   83.6424   11.3346 C.3     1  UNL1        0.0476
     29 C          62.8072   84.6478   10.5819 C.ar    1  UNL1       -0.0204
     30 C          61.7353   85.4224   11.2900 C.ar    1  UNL1       -0.0035
     31 C          60.9152   86.4278   10.5374 C.ar    1  UNL1        0.0100
     32 C          61.1668   86.6587    9.0767 C.ar    1  UNL1        0.0684
     33 C          62.2386   85.8841    8.3687 C.ar    1  UNL1        0.0100
     34 C          63.0588   84.8787    9.1213 C.ar    1  UNL1       -0.0035
     35 C          60.3466   87.6641    8.3241 C.1     1  UNL1        0.1004
     36 N          59.5266   88.6696    7.5714 N.1     1  UNL1       -0.1908
@<TRIPOS>BOND
     1    12    13    1
     2    13    14    1
     3    14    15    1
     4    15    16    1
     5    16     6    1
     6     6     7   ar
     7     7     8   ar
     8     8     1    1
     9     1     2    1
    10     2     3    1
    11     3     4    1
    12     4     5    1
    13     5    23    1
    14    23    24    2
    15    23    25   am
    16    25    27    1
    17    27    28    1
    18    28    29    1
    19    29    30   ar
    20    30    31   ar
    21    31    32   ar
    22    32    35    1
    23    35    36    3
    24    32    33   ar
    25    33    34   ar
    26     8     9   ar
    27     9    10   ar
    28    10    19    1
    29    19    20    1
    30    19    21    1
    31    19    22    1
    32    10    11   ar
    33    16    17    1
    34    17    18    1
    35    18    13    1
    36    11     6   ar
    37     5     1    1
    38    34    29   ar
    39    25    26    1
@<TRIPOS>MOLECULE
*****
 36 39 0 0 0
SMALL
GASTEIGER

@<TRIPOS>ATOM
      1 N          63.4274   90.4170   12.4836 N.pl3   1  UNL1       -0.2869
      2 C          64.1873   91.4474   11.7019 C.3     1  UNL1        0.0926
      3 C          65.2604   92.0043   12.5897 C.3     1  UNL1        0.0237
      4 C          65.1638   91.3181   13.9201 C.3     1  UNL1        0.0309
      5 C          64.0309   90.3371   13.8545 C.3     1  UNL1        0.1508
      6 C          61.2955   87.8491   10.3363 C.ar    1  UNL1        0.1362
      7 C          62.4552   88.6576   10.8375 C.ar    1  UNL1        0.0686
      8 C          62.2676   89.6085   11.9823 C.ar    1  UNL1        0.1364
      9 N          60.9202   89.7509   12.6258 N.ar    1  UNL1       -0.2083
     10 C          59.7604   88.9424   12.1246 C.ar    1  UNL1        0.2374
     11 N          59.9481   87.9915   10.9798 N.ar    1  UNL1       -0.2083
     12 C          62.0463   84.0454    5.7571 C.3     1  UNL1        0.0897
     13 N          61.8586   84.9963    6.9019 N.3     1  UNL1       -0.2686
     14 C          62.9698   85.2146    7.8855 C.3     1  UNL1        0.0939
     15 C          62.7821   86.1655    9.0303 C.3     1  UNL1        0.1095
     16 N          61.4832   86.8982    9.1915 N.pl3   1  UNL1       -0.2903
     17 C          60.3720   86.6799    8.2078 C.3     1  UNL1        0.1095
     18 C          60.5597   85.7290    7.0630 C.3     1  UNL1        0.0939
     19 C          58.4129   89.0848   12.7681 C.3     1  UNL1        0.4524
     20 F          57.0655   89.2272   13.4116 F       1  UNL1       -0.1632
     21 F          58.1045   90.2427   11.8659 F       1  UNL1       -0.1632
     22 F          58.7214   87.9268   13.6703 F       1  UNL1       -0.1632
     23 C          63.5807   89.4347   14.9648 C.2     1  UNL1        0.2405
     24 O          62.7842   89.9916   16.1075 O.2     1  UNL1       -0.2733
     25 N          63.9268   87.9756   14.9327 N.am    1  UNL1       -0.3027
     26 H          64.4496   87.6102   14.1827 H       1  UNL1        0.1495
     27 C          63.4766   87.0732   16.0431 C.3     1  UNL1        0.0941
     28 C          64.0731   85.7044   16.1856 C.3     1  UNL1        0.0476
     29 C          63.8206   84.6631   15.1359 C.ar    1  UNL1       -0.0204
     30 C          62.6645   83.7181   15.2797 C.ar    1  UNL1       -0.0035
     31 C          62.4119   82.6769   14.2300 C.ar    1  UNL1        0.0100
     32 C          63.3153   82.5806   13.0363 C.ar    1  UNL1        0.0684
     33 C          64.4713   83.5256   12.8925 C.ar    1  UNL1        0.0100
     34 C          64.7240   84.5669   13.9423 C.ar    1  UNL1       -0.0035
     35 C          63.0628   81.5393   11.9866 C.1     1  UNL1        0.1004
     36 N          62.8101   80.4982   10.9368 N.1     1  UNL1       -0.1908
@<TRIPOS>BOND
     1    12    13    1
     2    13    14    1
     3    14    15    1
     4    15    16    1
     5    16     6    1
     6     6     7   ar
     7     7     8   ar
     8     8     1    1
     9     1     2    1
    10     2     3    1
    11     3     4    1
    12     4     5    1
    13     5    23    1
    14    23    24    2
    15    23    25   am
    16    25    27    1
    17    27    28    1
    18    28    29    1
    19    29    30   ar
    20    30    31   ar
    21    31    32   ar
    22    32    35    1
    23    35    36    3
    24    32    33   ar
    25    33    34   ar
    26     8     9   ar
    27     9    10   ar
    28    10    19    1
    29    19    20    1
    30    19    21    1
    31    19    22    1
    32    10    11   ar
    33    16    17    1
    34    17    18    1
    35    18    13    1
    36    11     6   ar
    37     5     1    1
    38    34    29   ar
    39    25    26    1
@<TRIPOS>MOLECULE
*****
 36 39 0 0 0
SMALL
GASTEIGER

@<TRIPOS>ATOM
      1 N          61.4109   86.9277   10.2960 N.pl3   1  UNL1       -0.2869
      2 C          60.9093   86.5907    8.9231 C.3     1  UNL1        0.0926
      3 C          60.2766   87.8220    8.3455 C.3     1  UNL1        0.0237
      4 C          60.3873   88.9201    9.3615 C.3     1  UNL1        0.0309
      5 C          61.0883   88.3673   10.5669 C.3     1  UNL1        0.1508
      6 C          62.8050   83.5763   11.9005 C.ar    1  UNL1        0.1362
      7 C          62.1039   84.5142   10.9632 C.ar    1  UNL1        0.0686
      8 C          62.1121   85.9897   11.2334 C.ar    1  UNL1        0.1364
      9 N          62.8214   86.5272   12.4408 N.ar    1  UNL1       -0.2083
     10 C          63.5225   85.5892   13.3781 C.ar    1  UNL1        0.2374
     11 N          63.5143   84.1137   13.1080 N.ar    1  UNL1       -0.2083
     12 C          62.7721   77.6745   10.8200 C.3     1  UNL1        0.0897
     13 N          62.7803   79.1499   11.0901 N.3     1  UNL1       -0.2686
     14 C          63.0713   80.1143    9.9787 C.3     1  UNL1        0.0939
     15 C          63.0795   81.5897   10.2488 C.3     1  UNL1        0.1095
     16 N          62.7968   82.1008   11.6304 N.pl3   1  UNL1       -0.2903
     17 C          62.5058   81.1365   12.7418 C.3     1  UNL1        0.1095
     18 C          62.4976   79.6610   12.4717 C.3     1  UNL1        0.0939
     19 C          64.2318   86.1266   14.5857 C.3     1  UNL1        0.4524
     20 F          64.9412   86.6641   15.7931 F       1  UNL1       -0.1632
     21 F          64.2904   87.4828   13.9476 F       1  UNL1       -0.1632
     22 F          64.1733   84.7704   15.2238 F       1  UNL1       -0.1632
     23 C          61.4102   89.1218   11.8228 C.2     1  UNL1        0.2405
     24 O          60.3141   89.4893   12.7787 O.2     1  UNL1       -0.2733
     25 N          62.8280   89.5087   12.1228 N.am    1  UNL1       -0.3027
     26 H          63.5473   89.2675   11.4955 H       1  UNL1        0.1495
     27 C          63.1499   90.2632   13.3787 C.3     1  UNL1        0.0941
     28 C          64.5505   90.7371   13.6308 C.3     1  UNL1        0.0476
     29 C          65.1104   91.8790   12.8354 C.ar    1  UNL1       -0.0204
     30 C          65.9788   92.9037   13.5035 C.ar    1  UNL1       -0.0035
     31 C          66.5387   94.0456   12.7082 C.ar    1  UNL1        0.0100
     32 C          66.2304   94.1629   11.2449 C.ar    1  UNL1        0.0684
     33 C          65.3620   93.1383   10.5769 C.ar    1  UNL1        0.0100
     34 C          64.8020   91.9963   11.3722 C.ar    1  UNL1       -0.0035
     35 C          66.7903   95.3048   10.4495 C.1     1  UNL1        0.1004
     36 N          67.3502   96.4466    9.6542 N.1     1  UNL1       -0.1908
@<TRIPOS>BOND
     1    12    13    1
     2    13    14    1
     3    14    15    1
     4    15    16    1
     5    16     6    1
     6     6     7   ar
     7     7     8   ar
     8     8     1    1
     9     1     2    1
    10     2     3    1
    11     3     4    1
    12     4     5    1
    13     5    23    1
    14    23    24    2
    15    23    25   am
    16    25    27    1
    17    27    28    1
    18    28    29    1
    19    29    30   ar
    20    30    31   ar
    21    31    32   ar
    22    32    35    1
    23    35    36    3
    24    32    33   ar
    25    33    34   ar
    26     8     9   ar
    27     9    10   ar
    28    10    19    1
    29    19    20    1
    30    19    21    1
    31    19    22    1
    32    10    11   ar
    33    16    17    1
    34    17    18    1
    35    18    13    1
    36    11     6   ar
    37     5     1    1
    38    34    29   ar
    39    25    26    1
@<TRIPOS>MOLECULE
*****
 36 39 0 0 0
SMALL
GASTEIGER

@<TRIPOS>ATOM
      1 N          61.2591   87.0146   10.1027 N.pl3   1  UNL1       -0.2869
      2 C          60.6863   86.5932    8.7819 C.3     1  UNL1        0.0926
      3 C          60.0276   87.7885    8.1597 C.3     1  UNL1        0.0237
      4 C          60.1932   88.9488    9.0959 C.3     1  UNL1        0.0309
      5 C          60.9543   88.4705   10.2967 C.3     1  UNL1        0.1508
      6 C          62.7612   83.7680   11.8211 C.ar    1  UNL1        0.1362
      7 C          62.0147   84.6479   10.8628 C.ar    1  UNL1        0.0686
      8 C          62.0056   86.1347   11.0611 C.ar    1  UNL1        0.1364
      9 N          62.7429   86.7416   12.2178 N.ar    1  UNL1       -0.2083
     10 C          63.4894   85.8617   13.1762 C.ar    1  UNL1        0.2374
     11 N          63.4985   84.3749   12.9778 N.ar    1  UNL1       -0.2083
     12 C          62.7976   77.8208   11.0278 C.3     1  UNL1        0.0897
     13 N          62.7885   79.3076   11.2261 N.3     1  UNL1       -0.2686
     14 C          62.4092   79.8843   12.5578 C.3     1  UNL1        0.0939
     15 C          62.4000   81.3711   12.7561 C.3     1  UNL1        0.1095
     16 N          62.7703   82.2812   11.6228 N.pl3   1  UNL1       -0.2903
     17 C          63.1496   81.7045   10.2911 C.3     1  UNL1        0.1095
     18 C          63.1588   80.2177   10.0927 C.3     1  UNL1        0.0939
     19 C          64.2268   86.4685   14.3329 C.3     1  UNL1        0.4524
     20 F          64.9641   87.0753   15.4897 F       1  UNL1       -0.1632
     21 F          64.2975   85.1236   14.9934 F       1  UNL1       -0.1632
     22 F          64.1561   87.8134   13.6725 F       1  UNL1       -0.1632
     23 C          61.3424   89.3020   11.4832 C.2     1  UNL1        0.2405
     24 O          60.4045   89.4325   12.6467 O.2     1  UNL1       -0.2733
     25 N          62.6682   90.0030   11.5065 N.am    1  UNL1       -0.3027
     26 H          63.2838   89.9174   10.7429 H       1  UNL1        0.1495
     27 C          63.0564   90.8346   12.6930 C.3     1  UNL1        0.0941
     28 C          64.0255   90.2947   13.7026 C.3     1  UNL1        0.0476
     29 C          65.1384   91.1616   14.2123 C.ar    1  UNL1       -0.0204
     30 C          65.1134   91.6595   15.6271 C.ar    1  UNL1       -0.0035
     31 C          66.2263   92.5265   16.1368 C.ar    1  UNL1        0.0100
     32 C          67.3642   92.8956   15.2318 C.ar    1  UNL1        0.0684
     33 C          67.3891   92.3978   13.8171 C.ar    1  UNL1        0.0100
     34 C          66.2762   91.5308   13.3072 C.ar    1  UNL1       -0.0035
     35 C          68.4770   93.7626   15.7415 C.1     1  UNL1        0.1004
     36 N          69.5899   94.6295   16.2513 N.1     1  UNL1       -0.1908
@<TRIPOS>BOND
     1    12    13    1
     2    13    14    1
     3    14    15    1
     4    15    16    1
     5    16     6    1
     6     6     7   ar
     7     7     8   ar
     8     8     1    1
     9     1     2    1
    10     2     3    1
    11     3     4    1
    12     4     5    1
    13     5    23    1
    14    23    24    2
    15    23    25   am
    16    25    27    1
    17    27    28    1
    18    28    29    1
    19    29    30   ar
    20    30    31   ar
    21    31    32   ar
    22    32    35    1
    23    35    36    3
    24    32    33   ar
    25    33    34   ar
    26     8     9   ar
    27     9    10   ar
    28    10    19    1
    29    19    20    1
    30    19    21    1
    31    19    22    1
    32    10    11   ar
    33    16    17    1
    34    17    18    1
    35    18    13    1
    36    11     6   ar
    37     5     1    1
    38    34    29   ar
    39    25    26    1
@<TRIPOS>MOLECULE
*****
 36 39 0 0 0
SMALL
GASTEIGER

@<TRIPOS>ATOM
      1 N          61.3163   86.6852    8.9075 N.pl3   1  UNL1       -0.2869
      2 C          60.6767   86.7163    7.5511 C.3     1  UNL1        0.0926
      3 C          61.0835   85.4725    6.8180 C.3     1  UNL1        0.0237
      4 C          61.9746   84.6725    7.7215 C.3     1  UNL1        0.0309
      5 C          62.1184   85.4220    9.0129 C.3     1  UNL1        0.1508
      6 C          62.1660   89.7366   11.2985 C.ar    1  UNL1        0.1362
      7 C          62.3042   88.6886   10.2343 C.ar    1  UNL1        0.0686
      8 C          61.1781   87.7332    9.9718 C.ar    1  UNL1        0.1364
      9 N          59.9137   87.8257   10.7735 N.ar    1  UNL1       -0.2083
     10 C          59.7755   88.8737   11.8377 C.ar    1  UNL1        0.2374
     11 N          60.9017   89.8291   12.1002 N.ar    1  UNL1       -0.2083
     12 C          66.6706   93.5584   12.3485 C.3     1  UNL1        0.0897
     13 N          65.5445   92.6030   12.0860 N.3     1  UNL1       -0.2686
     14 C          65.0385   91.7193   13.1874 C.3     1  UNL1        0.0939
     15 C          63.9123   90.7639   12.9249 C.3     1  UNL1        0.1095
     16 N          63.2922   90.6921   11.5610 N.pl3   1  UNL1       -0.2903
     17 C          63.7981   91.5757   10.4596 C.3     1  UNL1        0.1095
     18 C          64.9243   92.5312   10.7221 C.3     1  UNL1        0.0939
     19 C          58.5111   88.9663   12.6395 C.3     1  UNL1        0.4524
     20 F          57.2468   89.0589   13.4412 F       1  UNL1       -0.1632
     21 F          58.1173   90.1961   11.8764 F       1  UNL1       -0.1632
     22 F          58.9049   87.7364   13.4027 F       1  UNL1       -0.1632
     23 C          62.9231   84.9851   10.2009 C.2     1  UNL1        0.2405
     24 O          62.8375   85.7514   11.4876 O.2     1  UNL1       -0.2733
     25 N          63.8135   83.7820   10.1024 N.am    1  UNL1       -0.3027
     26 H          63.8697   83.2791    9.2579 H       1  UNL1        0.1495
     27 C          64.6182   83.3450   11.2905 C.3     1  UNL1        0.0941
     28 C          63.9323   82.7401   12.4794 C.3     1  UNL1        0.0476
     29 C          63.6577   83.5774   13.6933 C.ar    1  UNL1       -0.0204
     30 C          62.3828   83.3897   14.4611 C.ar    1  UNL1       -0.0035
     31 C          62.1082   84.2270   15.6749 C.ar    1  UNL1        0.0100
     32 C          63.1084   85.2521   16.1210 C.ar    1  UNL1        0.0684
     33 C          64.3832   85.4398   15.3531 C.ar    1  UNL1        0.0100
     34 C          64.6579   84.6025   14.1392 C.ar    1  UNL1       -0.0035
     35 C          62.8337   86.0895   17.3348 C.1     1  UNL1        0.1004
     36 N          62.5592   86.9268   18.5487 N.1     1  UNL1       -0.1908
@<TRIPOS>BOND
     1    12    13    1
     2    13    14    1
     3    14    15    1
     4    15    16    1
     5    16     6    1
     6     6     7   ar
     7     7     8   ar
     8     8     1    1
     9     1     2    1
    10     2     3    1
    11     3     4    1
    12     4     5    1
    13     5    23    1
    14    23    24    2
    15    23    25   am
    16    25    27    1
    17    27    28    1
    18    28    29    1
    19    29    30   ar
    20    30    31   ar
    21    31    32   ar
    22    32    35    1
    23    35    36    3
    24    32    33   ar
    25    33    34   ar
    26     8     9   ar
    27     9    10   ar
    28    10    19    1
    29    19    20    1
    30    19    21    1
    31    19    22    1
    32    10    11   ar
    33    16    17    1
    34    17    18    1
    35    18    13    1
    36    11     6   ar
    37     5     1    1
    38    34    29   ar
    39    25    26    1
@<TRIPOS>MOLECULE
*****
 36 39 0 0 0
SMALL
GASTEIGER

@<TRIPOS>ATOM
      1 N          63.5390   90.2628   14.5761 N.pl3   1  UNL1       -0.2869
      2 C          63.4317   91.2278   15.7195 C.3     1  UNL1        0.0926
      3 C          63.5108   90.4445   16.9962 C.3     1  UNL1        0.0237
      4 C          63.6670   88.9953   16.6419 C.3     1  UNL1        0.0309
      5 C          63.6845   88.8831   15.1462 C.3     1  UNL1        0.1508
      6 C          64.4101   92.0086   11.1201 C.ar    1  UNL1        0.1362
      7 C          64.4425   91.6557   12.5776 C.ar    1  UNL1        0.0686
      8 C          63.5066   90.6157   13.1185 C.ar    1  UNL1        0.1364
      9 N          62.5382   89.9287   12.2019 N.ar    1  UNL1       -0.2083
     10 C          62.5058   90.2817   10.7444 C.ar    1  UNL1        0.2374
     11 N          63.4417   91.3216   10.2035 N.ar    1  UNL1       -0.2083
     12 C          68.1539   96.1683    8.9567 C.3     1  UNL1        0.0897
     13 N          67.2179   95.1284    9.4975 N.3     1  UNL1       -0.2686
     14 C          65.9264   95.5423   10.1384 C.3     1  UNL1        0.0939
     15 C          64.9905   94.5023   10.6792 C.3     1  UNL1        0.1095
     16 N          65.3460   93.0485   10.5793 N.pl3   1  UNL1       -0.2903
     17 C          66.6375   92.6347    9.9384 C.3     1  UNL1        0.1095
     18 C          67.5735   93.6746    9.3976 C.3     1  UNL1        0.0939
     19 C          61.5374   89.5946    9.8277 C.3     1  UNL1        0.4524
     20 F          60.5691   88.9076    8.9110 F       1  UNL1       -0.1632
     21 F          62.5958   88.5990    9.4559 F       1  UNL1       -0.1632
     22 F          60.4790   90.5903   10.1995 F       1  UNL1       -0.1632
     23 C          63.8230   87.6139   14.3588 C.2     1  UNL1        0.2405
     24 O          63.8143   87.6567   12.8594 O.2     1  UNL1       -0.2733
     25 N          63.9703   86.3019   15.0707 N.am    1  UNL1       -0.3027
     26 H          63.9760   86.2737   16.0548 H       1  UNL1        0.1495
     27 C          64.1089   85.0327   14.2834 C.3     1  UNL1        0.0941
     28 C          62.9274   84.4740   13.5471 C.3     1  UNL1        0.0476
     29 C          62.8770   84.5405   12.0495 C.ar    1  UNL1       -0.0204
     30 C          63.7328   83.6216   11.2288 C.ar    1  UNL1       -0.0035
     31 C          63.6824   83.6881    9.7311 C.ar    1  UNL1        0.0100
     32 C          62.7763   84.6734    9.0541 C.ar    1  UNL1        0.0684
     33 C          61.9206   85.5922    9.8748 C.ar    1  UNL1        0.0100
     34 C          61.9709   85.5258   11.3725 C.ar    1  UNL1       -0.0035
     35 C          62.7259   84.7399    7.5564 C.1     1  UNL1        0.1004
     36 N          62.6756   84.8063    6.0588 N.1     1  UNL1       -0.1908
@<TRIPOS>BOND
     1    12    13    1
     2    13    14    1
     3    14    15    1
     4    15    16    1
     5    16     6    1
     6     6     7   ar
     7     7     8   ar
     8     8     1    1
     9     1     2    1
    10     2     3    1
    11     3     4    1
    12     4     5    1
    13     5    23    1
    14    23    24    2
    15    23    25   am
    16    25    27    1
    17    27    28    1
    18    28    29    1
    19    29    30   ar
    20    30    31   ar
    21    31    32   ar
    22    32    35    1
    23    35    36    3
    24    32    33   ar
    25    33    34   ar
    26     8     9   ar
    27     9    10   ar
    28    10    19    1
    29    19    20    1
    30    19    21    1
    31    19    22    1
    32    10    11   ar
    33    16    17    1
    34    17    18    1
    35    18    13    1
    36    11     6   ar
    37     5     1    1
    38    34    29   ar
    39    25    26    1
