@<TRIPOS>MOLECULE
*****
 29 31 0 0 0
SMALL
GASTEIGER

@<TRIPOS>ATOM
      1 C          63.2640   90.6717   12.3092 C.3     1  UNL1        0.0518
      2 C          63.1606   89.1776   12.2245 C.ar    1  UNL1        0.0568
      3 N          63.4881   88.3342   13.4208 N.ar    1  UNL1       -0.2456
      4 C          63.3847   86.8402   13.3361 C.ar    1  UNL1        0.1319
      5 C          62.9538   86.1896   12.0551 C.ar    1  UNL1        0.0196
      6 C          62.6262   87.0330   10.8587 C.ar    1  UNL1       -0.0015
      7 C          62.7297   88.5271   10.9435 C.ar    1  UNL1        0.0068
      8 C          62.9436   84.7050   12.2696 C.3     1  UNL1        0.1226
      9 N          63.3683   84.4381   13.6832 N.am    1  UNL1       -0.2623
     10 C          63.6409   85.7577   14.3424 C.2     1  UNL1        0.2671
     11 O          64.0907   85.9593   15.7591 O.2     1  UNL1       -0.2682
     12 C          62.1953   86.3825    9.5776 C.ar    1  UNL1        0.0102
     13 C          63.1933   85.6362    8.7428 C.ar    1  UNL1        0.0017
     14 C          62.7624   84.9856    7.4617 C.ar    1  UNL1        0.0114
     15 C          61.3336   85.0816    7.0155 C.ar    1  UNL1        0.0585
     16 CL         60.9027   84.4311    5.7344 Cl      1  UNL1       -0.0822
     17 C          60.3356   85.8280    7.8503 C.ar    1  UNL1        0.0228
     18 C          60.7665   86.4785    9.1314 C.ar    1  UNL1        0.0585
     19 CL         59.7685   87.2248    9.9662 Cl      1  UNL1       -0.0822
     20 C          62.4021   89.3707    9.7471 C.3     1  UNL1        0.0934
     21 N          61.1411   90.1826    9.7244 N.3     1  UNL1       -0.3174
     22 H          60.3347   89.5582    9.7189 H       1  UNL1        0.1192
     23 H          61.1264   90.7644    8.8867 H       1  UNL1        0.1192
     24 C          63.4977   83.0886   14.3251 C.3     1  UNL1        0.1798
     25 C          63.5784   81.8572   13.4724 C.2     1  UNL1        0.2461
     26 O          64.8082   81.5894   12.6563 O.2     1  UNL1       -0.2730
     27 N          62.4295   80.8935   13.4357 N.am    1  UNL1       -0.2746
     28 C          62.5103   79.6621   12.5830 C.3     1  UNL1        0.1150
     29 C          61.1998   81.1613   14.2518 C.3     1  UNL1        0.1150
@<TRIPOS>BOND
     1     1     2    1
     2     2     3   ar
     3     3     4   ar
     4     4     5   ar
     5     5     6   ar
     6     6    12    1
     7    12    13   ar
     8    13    14   ar
     9    14    15   ar
    10    15    16    1
    11    15    17   ar
    12    17    18   ar
    13    18    19    1
    14     6     7   ar
    15     7    20    1
    16    20    21    1
    17     5     8    1
    18     8     9    1
    19     9    24    1
    20    24    25    1
    21    25    26    2
    22    25    27   am
    23    27    28    1
    24    27    29    1
    25     9    10   am
    26    10    11    2
    27     7     2   ar
    28    10     4    1
    29    18    12   ar
    30    21    22    1
    31    21    23    1
@<TRIPOS>MOLECULE
*****
 29 31 0 0 0
SMALL
GASTEIGER

@<TRIPOS>ATOM
      1 C          65.6938   91.9945   15.9842 C.3     1  UNL1        0.0518
      2 C          65.2133   91.9340   14.5645 C.ar    1  UNL1        0.0568
      3 N          64.0990   91.0028   14.1889 N.ar    1  UNL1       -0.2456
      4 C          63.6185   90.9423   12.7692 C.ar    1  UNL1        0.1319
      5 C          64.2523   91.8130   11.7251 C.ar    1  UNL1        0.0196
      6 C          65.3667   92.7442   12.1007 C.ar    1  UNL1       -0.0015
      7 C          65.8471   92.8047   13.5205 C.ar    1  UNL1        0.0068
      8 C          63.5725   91.5375   10.4167 C.3     1  UNL1        0.1226
      9 N          62.5185   90.4965   10.6522 N.am    1  UNL1       -0.2623
     10 C          62.5469   90.1286   12.1061 C.2     1  UNL1        0.2671
     11 O          61.6596   89.1236   12.7788 O.2     1  UNL1       -0.2682
     12 C          66.0006   93.6150   11.0566 C.ar    1  UNL1        0.0102
     13 C          65.4190   94.9634   10.7507 C.ar    1  UNL1        0.0017
     14 C          66.0528   95.8342    9.7067 C.ar    1  UNL1        0.0114
     15 C          67.2682   95.3565    8.9687 C.ar    1  UNL1        0.0585
     16 CL         67.9020   96.2274    7.9246 Cl      1  UNL1       -0.0822
     17 C          67.8497   94.0081    9.2746 C.ar    1  UNL1        0.0228
     18 C          67.2159   93.1373   10.3186 C.ar    1  UNL1        0.0585
     19 CL         67.7975   91.7889   10.6246 Cl      1  UNL1       -0.0822
     20 C          66.9615   93.7360   13.8961 C.3     1  UNL1        0.0934
     21 N          68.2955   93.1837   14.3027 N.3     1  UNL1       -0.3174
     22 H          68.1985   92.6714   15.1794 H       1  UNL1        0.1192
     23 H          68.9568   93.9501   14.4283 H       1  UNL1        0.1192
     24 C          61.5978   89.9239    9.6157 C.3     1  UNL1        0.1798
     25 C          61.4573   88.4370    9.4765 C.2     1  UNL1        0.2461
     26 O          62.3546   87.5226   10.2567 O.2     1  UNL1       -0.2730
     27 N          60.4196   87.8644    8.5571 N.am    1  UNL1       -0.2746
     28 C          60.2792   86.3775    8.4179 C.3     1  UNL1        0.1150
     29 C          59.5223   88.7788    7.7769 C.3     1  UNL1        0.1150
@<TRIPOS>BOND
     1     1     2    1
     2     2     3   ar
     3     3     4   ar
     4     4     5   ar
     5     5     6   ar
     6     6    12    1
     7    12    13   ar
     8    13    14   ar
     9    14    15   ar
    10    15    16    1
    11    15    17   ar
    12    17    18   ar
    13    18    19    1
    14     6     7   ar
    15     7    20    1
    16    20    21    1
    17     5     8    1
    18     8     9    1
    19     9    24    1
    20    24    25    1
    21    25    26    2
    22    25    27   am
    23    27    28    1
    24    27    29    1
    25     9    10   am
    26    10    11    2
    27     7     2   ar
    28    10     4    1
    29    18    12   ar
    30    21    22    1
    31    21    23    1
@<TRIPOS>MOLECULE
*****
 29 31 0 0 0
SMALL
GASTEIGER

@<TRIPOS>ATOM
      1 C          63.8394   83.9478   15.1516 C.3     1  UNL1        0.0518
      2 C          63.6407   85.1276   14.2467 C.ar    1  UNL1        0.0568
      3 N          63.9455   86.5109   14.7402 N.ar    1  UNL1       -0.2456
      4 C          63.7468   87.6907   13.8355 C.ar    1  UNL1        0.1319
      5 C          63.2433   87.4872   12.4372 C.ar    1  UNL1        0.0196
      6 C          62.9385   86.1039   11.9437 C.ar    1  UNL1       -0.0015
      7 C          63.1372   84.9241   12.8486 C.ar    1  UNL1        0.0068
      8 C          63.1460   88.8317   11.7793 C.3     1  UNL1        0.1226
      9 N          63.5894   89.8661   12.7709 N.am    1  UNL1       -0.2623
     10 C          63.9607   89.1610   14.0417 C.2     1  UNL1        0.2671
     11 O          64.4586   89.8119   15.2981 O.2     1  UNL1       -0.2682
     12 C          62.4349   85.9003   10.5455 C.ar    1  UNL1        0.0102
     13 C          63.2638   85.1398    9.5532 C.ar    1  UNL1        0.0017
     14 C          62.7603   84.9362    8.1550 C.ar    1  UNL1        0.0114
     15 C          61.4280   85.4931    7.7491 C.ar    1  UNL1        0.0585
     16 CL         60.9246   85.2894    6.3509 Cl      1  UNL1       -0.0822
     17 C          60.5992   86.2535    8.7414 C.ar    1  UNL1        0.0228
     18 C          61.1026   86.4572   10.1396 C.ar    1  UNL1        0.0585
     19 CL         60.2738   87.2177   11.1319 Cl      1  UNL1       -0.0822
     20 C          62.8323   83.5407   12.3551 C.3     1  UNL1        0.0934
     21 N          63.9482   82.6339   11.9281 N.3     1  UNL1       -0.3174
     22 H          64.3979   83.0165   11.0964 H       1  UNL1        0.1192
     23 H          63.5730   81.7092   11.7167 H       1  UNL1        0.1192
     24 C          63.6507   91.3459   12.5334 C.3     1  UNL1        0.1798
     25 C          64.4088   91.8860   11.3572 C.2     1  UNL1        0.2461
     26 O          63.7673   91.9175   10.0017 O.2     1  UNL1       -0.2730
     27 N          65.8086   92.3947   11.5364 N.am    1  UNL1       -0.2746
     28 C          66.5667   92.9348   10.3602 C.3     1  UNL1        0.1150
     29 C          66.4501   92.3632   12.8920 C.3     1  UNL1        0.1150
@<TRIPOS>BOND
     1     1     2    1
     2     2     3   ar
     3     3     4   ar
     4     4     5   ar
     5     5     6   ar
     6     6    12    1
     7    12    13   ar
     8    13    14   ar
     9    14    15   ar
    10    15    16    1
    11    15    17   ar
    12    17    18   ar
    13    18    19    1
    14     6     7   ar
    15     7    20    1
    16    20    21    1
    17     5     8    1
    18     8     9    1
    19     9    24    1
    20    24    25    1
    21    25    26    2
    22    25    27   am
    23    27    28    1
    24    27    29    1
    25     9    10   am
    26    10    11    2
    27     7     2   ar
    28    10     4    1
    29    18    12   ar
    30    21    22    1
    31    21    23    1
@<TRIPOS>MOLECULE
*****
 29 31 0 0 0
SMALL
GASTEIGER

@<TRIPOS>ATOM
      1 C          63.4524   80.6774   11.2760 C.3     1  UNL1        0.0518
      2 C          63.2195   82.1485   11.4550 C.ar    1  UNL1        0.0568
      3 N          63.0250   83.0283   10.2558 N.ar    1  UNL1       -0.2456
      4 C          62.7922   84.4993   10.4348 C.ar    1  UNL1        0.1319
      5 C          62.7538   85.0904   11.8129 C.ar    1  UNL1        0.0196
      6 C          62.9483   84.2105   13.0120 C.ar    1  UNL1       -0.0015
      7 C          63.1812   82.7395   12.8330 C.ar    1  UNL1        0.0068
      8 C          62.5073   86.5639   11.6786 C.3     1  UNL1        0.1226
      9 N          62.3933   86.8834   10.2175 N.am    1  UNL1       -0.2623
     10 C          62.5693   85.6074    9.4487 C.2     1  UNL1        0.2671
     11 O          62.5296   85.4647    7.9561 O.2     1  UNL1       -0.2682
     12 C          62.9100   84.8016   14.3902 C.ar    1  UNL1        0.0102
     13 C          61.6103   84.8853   15.1344 C.ar    1  UNL1        0.0017
     14 C          61.5719   85.4764   16.5125 C.ar    1  UNL1        0.0114
     15 C          62.8331   85.9836   17.1464 C.ar    1  UNL1        0.0585
     16 CL         62.7947   86.5746   18.5245 Cl      1  UNL1       -0.0822
     17 C          64.1328   85.8998   16.4022 C.ar    1  UNL1        0.0228
     18 C          64.1713   85.3088   15.0241 C.ar    1  UNL1        0.0585
     19 CL         65.4709   85.2250   14.2799 Cl      1  UNL1       -0.0822
     20 C          63.3757   81.8596   14.0323 C.3     1  UNL1        0.0934
     21 N          62.1973   81.1760   14.6600 N.3     1  UNL1       -0.3174
     22 H          61.5724   81.8753   15.0610 H       1  UNL1        0.1192
     23 H          62.5208   80.5475   15.3953 H       1  UNL1        0.1192
     24 C          62.1465   88.2407    9.6284 C.3     1  UNL1        0.1798
     25 C          60.8707   88.9690    9.9312 C.2     1  UNL1        0.2461
     26 O          59.6633   88.7581    9.0665 O.2     1  UNL1       -0.2730
     27 N          60.8021   89.9083   11.0987 N.am    1  UNL1       -0.2746
     28 C          59.5262   90.6366   11.4014 C.3     1  UNL1        0.1150
     29 C          62.0095   90.1193   11.9634 C.3     1  UNL1        0.1150
@<TRIPOS>BOND
     1     1     2    1
     2     2     3   ar
     3     3     4   ar
     4     4     5   ar
     5     5     6   ar
     6     6    12    1
     7    12    13   ar
     8    13    14   ar
     9    14    15   ar
    10    15    16    1
    11    15    17   ar
    12    17    18   ar
    13    18    19    1
    14     6     7   ar
    15     7    20    1
    16    20    21    1
    17     5     8    1
    18     8     9    1
    19     9    24    1
    20    24    25    1
    21    25    26    2
    22    25    27   am
    23    27    28    1
    24    27    29    1
    25     9    10   am
    26    10    11    2
    27     7     2   ar
    28    10     4    1
    29    18    12   ar
    30    21    22    1
    31    21    23    1
@<TRIPOS>MOLECULE
*****
 29 31 0 0 0
SMALL
GASTEIGER

@<TRIPOS>ATOM
      1 C          64.3577   90.9550   13.7080 C.3     1  UNL1        0.0518
      2 C          63.9534   89.5577   13.3413 C.ar    1  UNL1        0.0568
      3 N          64.4605   88.3956   14.1427 N.ar    1  UNL1       -0.2456
      4 C          64.0563   86.9984   13.7761 C.ar    1  UNL1        0.1319
      5 C          63.1450   86.7633   12.6080 C.ar    1  UNL1        0.0196
      6 C          62.6380   87.9255   11.8066 C.ar    1  UNL1       -0.0015
      7 C          63.0422   89.3227   12.1733 C.ar    1  UNL1        0.0068
      8 C          62.9199   85.2854   12.4857 C.3     1  UNL1        0.1226
      9 N          63.6920   84.6070   13.5783 N.am    1  UNL1       -0.2623
     10 C          64.3944   85.6657   14.3757 C.2     1  UNL1        0.2671
     11 O          65.2793   85.4325   15.5642 O.2     1  UNL1       -0.2682
     12 C          61.7267   87.6905   10.6385 C.ar    1  UNL1        0.0102
     13 C          62.2482   87.0163    9.4042 C.ar    1  UNL1        0.0017
     14 C          61.3371   86.7813    8.2361 C.ar    1  UNL1        0.0114
     15 C          59.9044   87.2205    8.3023 C.ar    1  UNL1        0.0585
     16 CL         58.9932   86.9855    7.1342 Cl      1  UNL1       -0.0822
     17 C          59.3828   87.8947    9.5366 C.ar    1  UNL1        0.0228
     18 C          60.2940   88.1297   10.7047 C.ar    1  UNL1        0.0585
     19 CL         59.7725   88.8038   11.9390 Cl      1  UNL1       -0.0822
     20 C          62.5351   90.4849   11.3718 C.3     1  UNL1        0.0934
     21 N          63.3250   90.9902   10.2010 N.3     1  UNL1       -0.3174
     22 H          64.2076   91.3817   10.5298 H       1  UNL1        0.1192
     23 H          62.7917   91.7128    9.7175 H       1  UNL1        0.1192
     24 C          63.7514   83.1293   13.8293 C.3     1  UNL1        0.1798
     25 C          62.5428   82.4074   14.3470 C.2     1  UNL1        0.2461
     26 O          61.8464   82.8998   15.5808 O.2     1  UNL1       -0.2730
     27 N          62.0306   81.1929   13.6308 N.am    1  UNL1       -0.2746
     28 C          60.8220   80.4710   14.1486 C.3     1  UNL1        0.1150
     29 C          62.7270   80.7005   12.3970 C.3     1  UNL1        0.1150
@<TRIPOS>BOND
     1     1     2    1
     2     2     3   ar
     3     3     4   ar
     4     4     5   ar
     5     5     6   ar
     6     6    12    1
     7    12    13   ar
     8    13    14   ar
     9    14    15   ar
    10    15    16    1
    11    15    17   ar
    12    17    18   ar
    13    18    19    1
    14     6     7   ar
    15     7    20    1
    16    20    21    1
    17     5     8    1
    18     8     9    1
    19     9    24    1
    20    24    25    1
    21    25    26    2
    22    25    27   am
    23    27    28    1
    24    27    29    1
    25     9    10   am
    26    10    11    2
    27     7     2   ar
    28    10     4    1
    29    18    12   ar
    30    21    22    1
    31    21    23    1
@<TRIPOS>MOLECULE
*****
 29 31 0 0 0
SMALL
GASTEIGER

@<TRIPOS>ATOM
      1 C          60.0563   89.1468    8.5941 C.3     1  UNL1        0.0518
      2 C          60.9995   88.8073    9.7100 C.ar    1  UNL1        0.0568
      3 N          61.6679   89.9028   10.4866 N.ar    1  UNL1       -0.2456
      4 C          62.6110   89.5633   11.6024 C.ar    1  UNL1        0.1319
      5 C          62.8859   88.1283   11.9417 C.ar    1  UNL1        0.0196
      6 C          62.2175   87.0327   11.1652 C.ar    1  UNL1       -0.0015
      7 C          61.2743   87.3723   10.0493 C.ar    1  UNL1        0.0068
      8 C          63.8557   88.0999   13.0857 C.3     1  UNL1        0.1226
      9 N          64.1802   89.5174   13.4534 N.am    1  UNL1       -0.2623
     10 C          63.4110   90.4219   12.5367 C.2     1  UNL1        0.2671
     11 O          63.4372   91.9216   12.5517 O.2     1  UNL1       -0.2682
     12 C          62.4923   85.5976   11.5044 C.ar    1  UNL1        0.0102
     13 C          62.1664   85.0746   12.8720 C.ar    1  UNL1        0.0017
     14 C          62.4412   83.6396   13.2113 C.ar    1  UNL1        0.0114
     15 C          63.0418   82.7276   12.1830 C.ar    1  UNL1        0.0585
     16 CL         63.3165   81.2925   12.5223 Cl      1  UNL1       -0.0822
     17 C          63.3677   83.2505   10.8154 C.ar    1  UNL1        0.0228
     18 C          63.0929   84.6856   10.4761 C.ar    1  UNL1        0.0585
     19 CL         63.4188   85.2086    9.1085 Cl      1  UNL1       -0.0822
     20 C          60.6059   86.2767    9.2726 C.3     1  UNL1        0.0934
     21 N          60.7873   86.1929    7.7860 N.3     1  UNL1       -0.3174
     22 H          60.3541   87.0039    7.3444 H       1  UNL1        0.1192
     23 H          60.3482   85.3409    7.4374 H       1  UNL1        0.1192
     24 C          65.1106   89.9540   14.5460 C.3     1  UNL1        0.1798
     25 C          65.2586   91.4116   14.8673 C.2     1  UNL1        0.2461
     26 O          64.3072   92.0695   15.8223 O.2     1  UNL1       -0.2730
     27 N          66.3580   92.2116   14.2336 N.am    1  UNL1       -0.2746
     28 C          66.5059   93.6693   14.5549 C.3     1  UNL1        0.1150
     29 C          67.3094   91.5538   13.2785 C.3     1  UNL1        0.1150
@<TRIPOS>BOND
     1     1     2    1
     2     2     3   ar
     3     3     4   ar
     4     4     5   ar
     5     5     6   ar
     6     6    12    1
     7    12    13   ar
     8    13    14   ar
     9    14    15   ar
    10    15    16    1
    11    15    17   ar
    12    17    18   ar
    13    18    19    1
    14     6     7   ar
    15     7    20    1
    16    20    21    1
    17     5     8    1
    18     8     9    1
    19     9    24    1
    20    24    25    1
    21    25    26    2
    22    25    27   am
    23    27    28    1
    24    27    29    1
    25     9    10   am
    26    10    11    2
    27     7     2   ar
    28    10     4    1
    29    18    12   ar
    30    21    22    1
    31    21    23    1
@<TRIPOS>MOLECULE
*****
 29 31 0 0 0
SMALL
GASTEIGER

@<TRIPOS>ATOM
      1 C          59.3289   88.5200    7.7034 C.3     1  UNL1        0.0518
      2 C          60.3289   88.3172    8.8028 C.ar    1  UNL1        0.0568
      3 N          60.8245   89.4925    9.5921 N.ar    1  UNL1       -0.2456
      4 C          61.8245   89.2898   10.6915 C.ar    1  UNL1        0.1319
      5 C          62.3290   87.9116   11.0017 C.ar    1  UNL1        0.0196
      6 C          61.8335   86.7363   10.2125 C.ar    1  UNL1       -0.0015
      7 C          60.8334   86.9391    9.1130 C.ar    1  UNL1        0.0068
      8 C          63.3061   88.0198   12.1347 C.3     1  UNL1        0.1226
      9 N          63.4055   89.4648   12.5246 N.am    1  UNL1       -0.2623
     10 C          62.4898   90.2497   11.6328 C.2     1  UNL1        0.2671
     11 O          62.2769   91.7339   11.6748 O.2     1  UNL1       -0.2682
     12 C          62.3380   85.3581   10.5226 C.ar    1  UNL1        0.0102
     13 C          61.9522   84.6901   11.8091 C.ar    1  UNL1        0.0017
     14 C          62.4566   83.3119   12.1193 C.ar    1  UNL1        0.0114
     15 C          63.3468   82.6018   11.1430 C.ar    1  UNL1        0.0585
     16 CL         63.8512   81.2236   11.4532 Cl      1  UNL1       -0.0822
     17 C          63.7326   83.2697    9.8566 C.ar    1  UNL1        0.0228
     18 C          63.2281   84.6479    9.5463 C.ar    1  UNL1        0.0585
     19 CL         63.6139   85.3158    8.2599 Cl      1  UNL1       -0.0822
     20 C          60.3378   85.7637    8.3237 C.3     1  UNL1        0.0934
     21 N          60.7333   85.6055    6.8855 N.3     1  UNL1       -0.3174
     22 H          60.3278   86.3633    6.3361 H       1  UNL1        0.1192
     23 H          60.3912   84.7108    6.5351 H       1  UNL1        0.1192
     24 C          64.2690   90.0263   13.6151 C.3     1  UNL1        0.1798
     25 C          63.7708   90.0487   15.0298 C.2     1  UNL1        0.2461
     26 O          63.3611   91.3466   15.6602 O.2     1  UNL1       -0.2730
     27 N          63.6824   88.7731   15.8141 N.am    1  UNL1       -0.2746
     28 C          63.1842   88.7955   17.2287 C.3     1  UNL1        0.1150
     29 C          64.0921   87.4751   15.1837 C.3     1  UNL1        0.1150
@<TRIPOS>BOND
     1     1     2    1
     2     2     3   ar
     3     3     4   ar
     4     4     5   ar
     5     5     6   ar
     6     6    12    1
     7    12    13   ar
     8    13    14   ar
     9    14    15   ar
    10    15    16    1
    11    15    17   ar
    12    17    18   ar
    13    18    19    1
    14     6     7   ar
    15     7    20    1
    16    20    21    1
    17     5     8    1
    18     8     9    1
    19     9    24    1
    20    24    25    1
    21    25    26    2
    22    25    27   am
    23    27    28    1
    24    27    29    1
    25     9    10   am
    26    10    11    2
    27     7     2   ar
    28    10     4    1
    29    18    12   ar
    30    21    22    1
    31    21    23    1
@<TRIPOS>MOLECULE
*****
 29 31 0 0 0
SMALL
GASTEIGER

@<TRIPOS>ATOM
      1 C          67.6811   91.5622   16.1511 C.3     1  UNL1        0.0518
      2 C          66.7948   91.6010   14.9415 C.ar    1  UNL1        0.0568
      3 N          65.4275   90.9864   14.9937 N.ar    1  UNL1       -0.2456
      4 C          64.5411   91.0252   13.7842 C.ar    1  UNL1        0.1319
      5 C          65.0220   91.6787   12.5226 C.ar    1  UNL1        0.0196
      6 C          66.3893   92.2933   12.4704 C.ar    1  UNL1       -0.0015
      7 C          67.2757   92.2545   13.6800 C.ar    1  UNL1        0.0068
      8 C          63.9332   91.5645   11.4972 C.3     1  UNL1        0.1226
      9 N          62.7793   90.8404   12.1252 N.am    1  UNL1       -0.2623
     10 C          63.1550   90.5071   13.5386 C.2     1  UNL1        0.2671
     11 O          62.2955   89.7829   14.5320 O.2     1  UNL1       -0.2682
     12 C          66.8703   92.9468   11.2088 C.ar    1  UNL1        0.0102
     13 C          67.6119   92.1419   10.1830 C.ar    1  UNL1        0.0017
     14 C          68.0929   92.7953    8.9214 C.ar    1  UNL1        0.0114
     15 C          67.8324   94.2536    8.6856 C.ar    1  UNL1        0.0585
     16 CL         68.3134   94.9070    7.4240 Cl      1  UNL1       -0.0822
     17 C          67.0908   95.0584    9.7115 C.ar    1  UNL1        0.0228
     18 C          66.6098   94.4050   10.9731 C.ar    1  UNL1        0.0585
     19 CL         65.8683   95.2099   11.9989 Cl      1  UNL1       -0.0822
     20 C          68.6431   92.8691   13.6278 C.3     1  UNL1        0.0934
     21 N          69.8540   91.9942   13.4925 N.3     1  UNL1       -0.3174
     22 H          69.9557   91.4225   14.3310 H       1  UNL1        0.1192
     23 H          70.6830   92.5768   13.3756 H       1  UNL1        0.1192
     24 C          61.4782   90.5080   11.4570 C.3     1  UNL1        0.1798
     25 C          60.9008   89.1294   11.5836 C.2     1  UNL1        0.2461
     26 O          59.7689   88.8747   12.5344 O.2     1  UNL1       -0.2730
     27 N          61.4552   88.0053   10.7594 N.am    1  UNL1       -0.2746
     28 C          60.8777   86.6268   10.8861 C.3     1  UNL1        0.1150
     29 C          62.5870   88.2600    9.8086 C.3     1  UNL1        0.1150
@<TRIPOS>BOND
     1     1     2    1
     2     2     3   ar
     3     3     4   ar
     4     4     5   ar
     5     5     6   ar
     6     6    12    1
     7    12    13   ar
     8    13    14   ar
     9    14    15   ar
    10    15    16    1
    11    15    17   ar
    12    17    18   ar
    13    18    19    1
    14     6     7   ar
    15     7    20    1
    16    20    21    1
    17     5     8    1
    18     8     9    1
    19     9    24    1
    20    24    25    1
    21    25    26    2
    22    25    27   am
    23    27    28    1
    24    27    29    1
    25     9    10   am
    26    10    11    2
    27     7     2   ar
    28    10     4    1
    29    18    12   ar
    30    21    22    1
    31    21    23    1
@<TRIPOS>MOLECULE
*****
 29 31 0 0 0
SMALL
GASTEIGER

@<TRIPOS>ATOM
      1 C          62.1230   84.4946    6.4199 C.3     1  UNL1        0.0518
      2 C          62.2695   84.8685    7.8652 C.ar    1  UNL1        0.0568
      3 N          63.1183   84.0301    8.7744 N.ar    1  UNL1       -0.2456
      4 C          63.2649   84.4040   10.2196 C.ar    1  UNL1        0.1319
      5 C          62.5627   85.6163   10.7556 C.ar    1  UNL1        0.0196
      6 C          61.7139   86.4547    9.8464 C.ar    1  UNL1       -0.0015
      7 C          61.5674   86.0807    8.4011 C.ar    1  UNL1        0.0068
      8 C          62.8922   85.7359   12.2141 C.3     1  UNL1        0.1226
      9 N          63.7981   84.5975   12.5794 N.am    1  UNL1       -0.2623
     10 C          64.0284   83.7744   11.3468 C.2     1  UNL1        0.2671
     11 O          64.8738   82.5386   11.2572 O.2     1  UNL1       -0.2682
     12 C          61.0117   87.6670   10.3824 C.ar    1  UNL1        0.0102
     13 C          59.6517   87.5337   11.0010 C.ar    1  UNL1        0.0017
     14 C          58.9494   88.7459   11.5370 C.ar    1  UNL1        0.0114
     15 C          59.6072   90.0915   11.4542 C.ar    1  UNL1        0.0585
     16 CL         58.9049   91.3037   11.9902 Cl      1  UNL1       -0.0822
     17 C          60.9671   90.2248   10.8356 C.ar    1  UNL1        0.0228
     18 C          61.6694   89.0126   10.2996 C.ar    1  UNL1        0.0585
     19 CL         63.0294   89.1459    9.6810 Cl      1  UNL1       -0.0822
     20 C          60.7186   86.9192    7.4919 C.3     1  UNL1        0.0934
     21 N          59.2498   86.6408    7.3690 N.3     1  UNL1       -0.3174
     22 H          59.1119   85.7272    6.9369 H       1  UNL1        0.1192
     23 H          58.8147   87.3596    6.7907 H       1  UNL1        0.1192
     24 C          64.3727   84.3294   13.9388 C.3     1  UNL1        0.1798
     25 C          63.5086   84.4613   15.1577 C.2     1  UNL1        0.2461
     26 O          62.7049   83.2893   15.6378 O.2     1  UNL1       -0.2730
     27 N          63.4482   85.7653   15.8968 N.am    1  UNL1       -0.2746
     28 C          62.5840   85.8972   17.1157 C.3     1  UNL1        0.1150
     29 C          64.2519   86.9373   15.4167 C.3     1  UNL1        0.1150
@<TRIPOS>BOND
     1     1     2    1
     2     2     3   ar
     3     3     4   ar
     4     4     5   ar
     5     5     6   ar
     6     6    12    1
     7    12    13   ar
     8    13    14   ar
     9    14    15   ar
    10    15    16    1
    11    15    17   ar
    12    17    18   ar
    13    18    19    1
    14     6     7   ar
    15     7    20    1
    16    20    21    1
    17     5     8    1
    18     8     9    1
    19     9    24    1
    20    24    25    1
    21    25    26    2
    22    25    27   am
    23    27    28    1
    24    27    29    1
    25     9    10   am
    26    10    11    2
    27     7     2   ar
    28    10     4    1
    29    18    12   ar
    30    21    22    1
    31    21    23    1
