@<TRIPOS>MOLECULE
*****
 20 22 0 0 0
SMALL
GASTEIGER

@<TRIPOS>ATOM
      1 C          65.7664   92.4037   11.8472 C.2     1  UNL1        0.1221
      2 C          65.7517   91.8739   13.2504 C.2     1  UNL1        0.0343
      3 C          64.6314   90.9863   13.7053 C.2     1  UNL1        0.0232
      4 C          63.5257   90.6285   12.7570 C.2     1  UNL1        0.0975
      5 N          62.2988   89.7809   12.9196 N.2     1  UNL1       -0.2200
      6 C          61.5552   89.7869   11.6169 C.2     1  UNL1        0.1901
      7 N          62.3225   90.6381   10.6491 N.2     1  UNL1       -0.2236
      8 C          63.5404   91.1583   11.3538 C.2     1  UNL1        0.0863
      9 C          64.6607   92.0459   10.8989 C.3     1  UNL1        0.1112
     10 O          66.8868   93.2914   11.3923 O.2     1  UNL1       -0.4793
     11 C          68.3462   92.3098    9.4801 C.3     1  UNL1        0.0511
     12 C          67.3107   93.2864    9.9535 C.3     1  UNL1        0.2051
     13 S          60.2700   89.0678   11.3320 S.3     1  UNL1       -0.0692
     14 C          60.2151   88.0299   10.2504 C.3     1  UNL1        0.1107
     15 C          61.1769   86.8789   10.2660 C.ar    1  UNL1        0.0703
     16 C          61.8760   86.4687    9.0039 C.ar    1  UNL1        0.0156
     17 C          62.8378   85.3177    9.0195 C.ar    1  UNL1        0.0028
     18 C          63.1004   84.5769   10.2971 C.ar    1  UNL1        0.0207
     19 C          62.4012   84.9872   11.5592 C.ar    1  UNL1        0.0985
     20 N          61.4394   86.1382   11.5436 N.ar    1  UNL1       -0.2473
@<TRIPOS>BOND
     1    11    12    1
     2    12    10    1
     3    10     1    1
     4     1     2    2
     5     2     3    1
     6     3     4    2
     7     4     5    1
     8     5     6    2
     9     6    13    1
    10    13    14    1
    11    14    15    1
    12    15    16   ar
    13    16    17   ar
    14    17    18   ar
    15    18    19   ar
    16    19    20   ar
    17     6     7    1
    18     7     8    2
    19     8     9    1
    20     9     1    1
    21     8     4    1
    22    20    15   ar
@<TRIPOS>MOLECULE
*****
 20 22 0 0 0
SMALL
GASTEIGER

@<TRIPOS>ATOM
      1 C          63.7465   83.2507   11.9390 C.2     1  UNL1        0.1221
      2 C          64.1239   83.1372   10.4917 C.2     1  UNL1        0.0343
      3 C          63.5543   84.0980    9.4906 C.2     1  UNL1        0.0232
      4 C          62.6073   85.1723    9.9367 C.2     1  UNL1        0.0975
      5 N          61.8911   86.2548    9.1848 N.2     1  UNL1       -0.2200
      6 C          61.0711   87.0372   10.1673 C.2     1  UNL1        0.1901
      7 N          61.2805   86.4384   11.5266 N.2     1  UNL1       -0.2236
      8 C          62.2299   85.2858   11.3840 C.2     1  UNL1        0.0863
      9 C          62.7995   84.3249   12.3852 C.3     1  UNL1        0.1112
     10 O          64.3161   82.2898   12.9402 O.2     1  UNL1       -0.4793
     11 C          62.5061   80.4276   12.8638 C.3     1  UNL1        0.0511
     12 C          63.4141   81.3251   13.6512 C.3     1  UNL1        0.2051
     13 S          60.1955   88.2122    9.8469 S.3     1  UNL1       -0.0692
     14 C          60.1964   89.4148   10.7434 C.3     1  UNL1        0.1107
     15 C          61.4929   89.9629   11.2617 C.ar    1  UNL1        0.0703
     16 C          62.3995   90.7342   10.3489 C.ar    1  UNL1        0.0156
     17 C          63.6959   91.2823   10.8672 C.ar    1  UNL1        0.0028
     18 C          64.0859   91.0591   12.2984 C.ar    1  UNL1        0.0207
     19 C          63.1793   90.2878   13.2112 C.ar    1  UNL1        0.0985
     20 N          61.8827   89.7397   12.6928 N.ar    1  UNL1       -0.2473
@<TRIPOS>BOND
     1    11    12    1
     2    12    10    1
     3    10     1    1
     4     1     2    2
     5     2     3    1
     6     3     4    2
     7     4     5    1
     8     5     6    2
     9     6    13    1
    10    13    14    1
    11    14    15    1
    12    15    16   ar
    13    16    17   ar
    14    17    18   ar
    15    18    19   ar
    16    19    20   ar
    17     6     7    1
    18     7     8    2
    19     8     9    1
    20     9     1    1
    21     8     4    1
    22    20    15   ar
@<TRIPOS>MOLECULE
*****
 20 22 0 0 0
SMALL
GASTEIGER

@<TRIPOS>ATOM
      1 C          65.9980   92.0677   13.4827 C.2     1  UNL1        0.1221
      2 C          65.7140   91.0576   14.5546 C.2     1  UNL1        0.0343
      3 C          64.5381   90.1356   14.4236 C.2     1  UNL1        0.0232
      4 C          63.6462   90.2236   13.2208 C.2     1  UNL1        0.0975
      5 N          62.4231   89.4536   12.8197 N.2     1  UNL1       -0.2200
      6 C          61.9511   89.9878   11.4999 C.2     1  UNL1        0.1901
      7 N          62.8826   91.0880   11.0853 N.2     1  UNL1       -0.2236
      8 C          63.9303   91.2337   12.1490 C.2     1  UNL1        0.0863
      9 C          65.1062   92.1557   12.2799 C.3     1  UNL1        0.1112
     10 O          67.1740   92.9897   13.6136 O.2     1  UNL1       -0.4793
     11 C          68.7604   92.8057   15.6628 C.3     1  UNL1        0.0511
     12 C          67.6063   93.4661   14.9686 C.3     1  UNL1        0.2051
     13 S          60.7573   89.5063   10.7298 S.3     1  UNL1       -0.0692
     14 C          60.2828   88.0922   10.8887 C.3     1  UNL1        0.1107
     15 C          61.2054   86.9519   10.5750 C.ar    1  UNL1        0.0703
     16 C          61.7259   86.7702    9.1800 C.ar    1  UNL1        0.0156
     17 C          62.6485   85.6299    8.8663 C.ar    1  UNL1        0.0028
     18 C          63.0505   84.6711    9.9477 C.ar    1  UNL1        0.0207
     19 C          62.5300   84.8528   11.3427 C.ar    1  UNL1        0.0985
     20 N          61.6074   85.9932   11.6563 N.ar    1  UNL1       -0.2473
@<TRIPOS>BOND
     1    11    12    1
     2    12    10    1
     3    10     1    1
     4     1     2    2
     5     2     3    1
     6     3     4    2
     7     4     5    1
     8     5     6    2
     9     6    13    1
    10    13    14    1
    11    14    15    1
    12    15    16   ar
    13    16    17   ar
    14    17    18   ar
    15    18    19   ar
    16    19    20   ar
    17     6     7    1
    18     7     8    2
    19     8     9    1
    20     9     1    1
    21     8     4    1
    22    20    15   ar
@<TRIPOS>MOLECULE
*****
 20 22 0 0 0
SMALL
GASTEIGER

@<TRIPOS>ATOM
      1 C          64.2538   90.6922   15.0463 C.2     1  UNL1        0.1221
      2 C          63.5343   90.6402   16.3614 C.2     1  UNL1        0.0343
      3 C          63.1161   89.3191   16.9358 C.2     1  UNL1        0.0232
      4 C          63.4174   88.0501   16.1951 C.2     1  UNL1        0.0975
      5 N          63.1308   86.6118   16.5101 N.2     1  UNL1       -0.2200
      6 C          63.6733   85.7749   15.3897 C.2     1  UNL1        0.1901
      7 N          64.2951   86.6959   14.3822 N.2     1  UNL1       -0.2236
      8 C          64.1369   88.1021   14.8800 C.2     1  UNL1        0.0863
      9 C          64.5551   89.4231   14.3056 C.3     1  UNL1        0.1112
     10 O          64.6721   92.0132   14.4719 O.2     1  UNL1       -0.4793
     11 C          66.7101   92.8123   15.8712 C.3     1  UNL1        0.0511
     12 C          66.1069   92.4437   14.5482 C.3     1  UNL1        0.2051
     13 S          63.6058   84.2794   15.2936 S.3     1  UNL1       -0.0692
     14 C          62.6903   83.6325   14.2970 C.3     1  UNL1        0.1107
     15 C          63.0476   83.6322   12.8402 C.ar    1  UNL1        0.0703
     16 C          62.5299   84.7153   11.9408 C.ar    1  UNL1        0.0156
     17 C          62.8872   84.7151   10.4840 C.ar    1  UNL1        0.0028
     18 C          63.7623   83.6317    9.9265 C.ar    1  UNL1        0.0207
     19 C          64.2799   82.5486   10.8259 C.ar    1  UNL1        0.0985
     20 N          63.9226   82.5489   12.2828 N.ar    1  UNL1       -0.2473
@<TRIPOS>BOND
     1    11    12    1
     2    12    10    1
     3    10     1    1
     4     1     2    2
     5     2     3    1
     6     3     4    2
     7     4     5    1
     8     5     6    2
     9     6    13    1
    10    13    14    1
    11    14    15    1
    12    15    16   ar
    13    16    17   ar
    14    17    18   ar
    15    18    19   ar
    16    19    20   ar
    17     6     7    1
    18     7     8    2
    19     8     9    1
    20     9     1    1
    21     8     4    1
    22    20    15   ar
@<TRIPOS>MOLECULE
*****
 20 22 0 0 0
SMALL
GASTEIGER

@<TRIPOS>ATOM
      1 C          66.2947   91.5124   14.0899 C.2     1  UNL1        0.1221
      2 C          66.3973   92.3184   12.8291 C.2     1  UNL1        0.0343
      3 C          65.3032   92.2519   11.8052 C.2     1  UNL1        0.0232
      4 C          64.1063   91.3794   12.0422 C.2     1  UNL1        0.0975
      5 N          62.8800   91.1128   11.2205 N.2     1  UNL1       -0.2200
      6 C          62.0194   90.1421   11.9735 C.2     1  UNL1        0.1901
      7 N          62.7138   89.8087   13.2606 N.2     1  UNL1       -0.2236
      8 C          64.0036   90.5734   13.3030 C.2     1  UNL1        0.0863
      9 C          65.0978   90.6399   14.3269 C.3     1  UNL1        0.1112
     10 O          67.3889   91.5790   15.1138 O.2     1  UNL1       -0.4793
     11 C          68.6757   93.6977   15.8914 C.3     1  UNL1        0.0511
     12 C          67.5013   92.7728   16.0149 C.3     1  UNL1        0.2051
     13 S          60.6966   89.5999   11.5192 S.3     1  UNL1       -0.0692
     14 C          60.3392   89.6178   10.0625 C.3     1  UNL1        0.1107
     15 C          60.3742   88.3472    9.2660 C.ar    1  UNL1        0.0703
     16 C          61.5340   87.4063    9.4056 C.ar    1  UNL1        0.0156
     17 C          61.5690   86.1357    8.6091 C.ar    1  UNL1        0.0028
     18 C          60.4441   85.8061    7.6730 C.ar    1  UNL1        0.0207
     19 C          59.2843   86.7470    7.5335 C.ar    1  UNL1        0.0985
     20 N          59.2494   88.0176    8.3300 N.ar    1  UNL1       -0.2473
@<TRIPOS>BOND
     1    11    12    1
     2    12    10    1
     3    10     1    1
     4     1     2    2
     5     2     3    1
     6     3     4    2
     7     4     5    1
     8     5     6    2
     9     6    13    1
    10    13    14    1
    11    14    15    1
    12    15    16   ar
    13    16    17   ar
    14    17    18   ar
    15    18    19   ar
    16    19    20   ar
    17     6     7    1
    18     7     8    2
    19     8     9    1
    20     9     1    1
    21     8     4    1
    22    20    15   ar
@<TRIPOS>MOLECULE
*****
 20 22 0 0 0
SMALL
GASTEIGER

@<TRIPOS>ATOM
      1 C          63.4388   82.5411   12.9258 C.2     1  UNL1        0.1221
      2 C          64.0376   83.4012   13.9989 C.2     1  UNL1        0.0343
      3 C          63.9288   84.8947   13.9109 C.2     1  UNL1        0.0232
      4 C          63.2212   85.5280   12.7498 C.2     1  UNL1        0.0975
      5 N          62.9580   86.9616   12.3955 N.2     1  UNL1       -0.2200
      6 C          62.1965   86.9875   11.1034 C.2     1  UNL1        0.1901
      7 N          61.9892   85.5699   10.6591 N.2     1  UNL1       -0.2236
      8 C          62.6225   84.6679   11.6767 C.2     1  UNL1        0.0863
      9 C          62.7313   83.1744   11.7647 C.3     1  UNL1        0.1112
     10 O          63.5476   81.0476   13.0138 O.2     1  UNL1       -0.4793
     11 C          61.1761   80.8919   14.0633 C.3     1  UNL1        0.0511
     12 C          62.3539   80.2308   13.4109 C.3     1  UNL1        0.2051
     13 S          61.7252   88.2154   10.3822 S.3     1  UNL1       -0.0692
     14 C          61.5241   89.4968   11.1355 C.3     1  UNL1        0.1107
     15 C          62.6999   90.3718   11.4544 C.ar    1  UNL1        0.0703
     16 C          63.3181   91.2180   10.3811 C.ar    1  UNL1        0.0156
     17 C          64.4939   92.0930   10.7000 C.ar    1  UNL1        0.0028
     18 C          65.0517   92.1219   12.0922 C.ar    1  UNL1        0.0207
     19 C          64.4336   91.2757   13.1654 C.ar    1  UNL1        0.0985
     20 N          63.2577   90.4007   12.8465 N.ar    1  UNL1       -0.2473
@<TRIPOS>BOND
     1    11    12    1
     2    12    10    1
     3    10     1    1
     4     1     2    2
     5     2     3    1
     6     3     4    2
     7     4     5    1
     8     5     6    2
     9     6    13    1
    10    13    14    1
    11    14    15    1
    12    15    16   ar
    13    16    17   ar
    14    17    18   ar
    15    18    19   ar
    16    19    20   ar
    17     6     7    1
    18     7     8    2
    19     8     9    1
    20     9     1    1
    21     8     4    1
    22    20    15   ar
@<TRIPOS>MOLECULE
*****
 20 22 0 0 0
SMALL
GASTEIGER

@<TRIPOS>ATOM
      1 C          61.4758   86.2197    8.8058 C.2     1  UNL1        0.1221
      2 C          62.5608   85.3446    8.2517 C.2     1  UNL1        0.0343
      3 C          63.3887   84.5008    9.1750 C.2     1  UNL1        0.0232
      4 C          63.1316   84.5321   10.6525 C.2     1  UNL1        0.0975
      5 N          63.7803   83.8155   11.7995 N.2     1  UNL1       -0.2200
      6 C          63.0962   84.2477   13.0626 C.2     1  UNL1        0.1901
      7 N          62.0248   85.2314   12.6961 N.2     1  UNL1       -0.2236
      8 C          62.0466   85.4071   11.2066 C.2     1  UNL1        0.0863
      9 C          61.2187   86.2509   10.2832 C.3     1  UNL1        0.1112
     10 O          60.6479   87.0635    7.8824 O.2     1  UNL1       -0.4793
     11 C          60.2917   89.3556    9.0525 C.3     1  UNL1        0.0511
     12 C          59.7273   88.1067    8.4428 C.3     1  UNL1        0.2051
     13 S          63.4258   83.7786   14.4487 S.3     1  UNL1       -0.0692
     14 C          64.3364   84.5927   15.3193 C.3     1  UNL1        0.1107
     15 C          63.9432   85.9828   15.7230 C.ar    1  UNL1        0.0703
     16 C          63.2115   86.2107   17.0125 C.ar    1  UNL1        0.0156
     17 C          62.8182   87.6007   17.4161 C.ar    1  UNL1        0.0028
     18 C          63.1566   88.7630   16.5303 C.ar    1  UNL1        0.0207
     19 C          63.8882   88.5352   15.2408 C.ar    1  UNL1        0.0985
     20 N          64.2815   87.1450   14.8371 N.ar    1  UNL1       -0.2473
@<TRIPOS>BOND
     1    11    12    1
     2    12    10    1
     3    10     1    1
     4     1     2    2
     5     2     3    1
     6     3     4    2
     7     4     5    1
     8     5     6    2
     9     6    13    1
    10    13    14    1
    11    14    15    1
    12    15    16   ar
    13    16    17   ar
    14    17    18   ar
    15    18    19   ar
    16    19    20   ar
    17     6     7    1
    18     7     8    2
    19     8     9    1
    20     9     1    1
    21     8     4    1
    22    20    15   ar
@<TRIPOS>MOLECULE
*****
 20 22 0 0 0
SMALL
GASTEIGER

@<TRIPOS>ATOM
      1 C          63.4560   84.4132   13.3005 C.2     1  UNL1        0.1221
      2 C          64.1992   84.5984   14.5901 C.2     1  UNL1        0.0343
      3 C          64.5430   85.9787   15.0662 C.2     1  UNL1        0.0232
      4 C          64.1436   87.1738   14.2525 C.2     1  UNL1        0.0975
      5 N          64.3427   88.6452   14.4656 N.2     1  UNL1       -0.2200
      6 C          63.7225   89.3694   13.3077 C.2     1  UNL1        0.1901
      7 N          63.1401   88.3456   12.3789 N.2     1  UNL1       -0.2236
      8 C          63.4004   86.9887   12.9629 C.2     1  UNL1        0.0863
      9 C          63.0565   85.6084   12.4869 C.3     1  UNL1        0.1112
     10 O          63.1122   83.0329   12.8245 O.2     1  UNL1       -0.4793
     11 C          61.7663   81.2194   14.1088 C.3     1  UNL1        0.0511
     12 C          63.0702   81.8926   13.7980 C.3     1  UNL1        0.2051
     13 S          63.6904   90.8564   13.1128 S.3     1  UNL1       -0.0692
     14 C          64.9487   91.5943   12.7632 C.3     1  UNL1        0.1107
     15 C          65.9328   91.9499   13.8379 C.ar    1  UNL1        0.0703
     16 C          67.4028   91.9477   13.5394 C.ar    1  UNL1        0.0156
     17 C          68.3869   92.3034   14.6141 C.ar    1  UNL1        0.0028
     18 C          67.9010   92.6612   15.9874 C.ar    1  UNL1        0.0207
     19 C          66.4310   92.6634   16.2859 C.ar    1  UNL1        0.0985
     20 N          65.4469   92.3077   15.2111 N.ar    1  UNL1       -0.2473
@<TRIPOS>BOND
     1    11    12    1
     2    12    10    1
     3    10     1    1
     4     1     2    2
     5     2     3    1
     6     3     4    2
     7     4     5    1
     8     5     6    2
     9     6    13    1
    10    13    14    1
    11    14    15    1
    12    15    16   ar
    13    16    17   ar
    14    17    18   ar
    15    18    19   ar
    16    19    20   ar
    17     6     7    1
    18     7     8    2
    19     8     9    1
    20     9     1    1
    21     8     4    1
    22    20    15   ar
@<TRIPOS>MOLECULE
*****
 20 22 0 0 0
SMALL
GASTEIGER

@<TRIPOS>ATOM
      1 C          63.6853   83.2352   13.4104 C.2     1  UNL1        0.1221
      2 C          64.3582   83.5798   14.7059 C.2     1  UNL1        0.0343
      3 C          64.5499   85.0164   15.0925 C.2     1  UNL1        0.0232
      4 C          64.0685   86.1083   14.1838 C.2     1  UNL1        0.0975
      5 N          64.1174   87.6032   14.2974 N.2     1  UNL1       -0.2200
      6 C          63.4746   88.1825   13.0721 C.2     1  UNL1        0.1901
      7 N          63.0284   87.0456   12.2012 N.2     1  UNL1       -0.2236
      8 C          63.3955   85.7637   12.8883 C.2     1  UNL1        0.0863
      9 C          63.2039   84.3271   12.5016 C.3     1  UNL1        0.1112
     10 O          63.4936   81.7986   13.0237 O.2     1  UNL1       -0.4793
     11 C          61.2518   81.2061   14.1955 C.3     1  UNL1        0.0511
     12 C          62.1131   81.2148   12.9674 C.3     1  UNL1        0.2051
     13 S          63.3073   89.6424   12.7706 S.3     1  UNL1       -0.0692
     14 C          64.0922   90.6621   13.5414 C.3     1  UNL1        0.1107
     15 C          64.7907   91.7748   12.8176 C.ar    1  UNL1        0.0703
     16 C          64.6551   91.9028   11.3293 C.ar    1  UNL1        0.0156
     17 C          65.3536   93.0155   10.6054 C.ar    1  UNL1        0.0028
     18 C          66.1878   94.0003   11.3700 C.ar    1  UNL1        0.0207
     19 C          66.3235   93.8722   12.8583 C.ar    1  UNL1        0.0985
     20 N          65.6249   92.7594   13.5821 N.ar    1  UNL1       -0.2473
@<TRIPOS>BOND
     1    11    12    1
     2    12    10    1
     3    10     1    1
     4     1     2    2
     5     2     3    1
     6     3     4    2
     7     4     5    1
     8     5     6    2
     9     6    13    1
    10    13    14    1
    11    14    15    1
    12    15    16   ar
    13    16    17   ar
    14    17    18   ar
    15    18    19   ar
    16    19    20   ar
    17     6     7    1
    18     7     8    2
    19     8     9    1
    20     9     1    1
    21     8     4    1
    22    20    15   ar
