@<TRIPOS>MOLECULE
*****
 33 36 0 0 0
SMALL
GASTEIGER

@<TRIPOS>ATOM
      1 C          60.5194   88.0785    8.8332 C.ar    1  UNL1       -0.0227
      2 C          60.9763   89.3605    9.4638 C.ar    1  UNL1       -0.0050
      3 C          61.9868   89.3328   10.5720 C.ar    1  UNL1        0.0208
      4 C          62.5403   88.0229   11.0496 C.ar    1  UNL1       -0.0007
      5 C          62.0834   86.7410   10.4190 C.ar    1  UNL1       -0.0005
      6 C          61.0729   86.7688    9.3108 C.ar    1  UNL1       -0.0043
      7 C          62.6370   85.4312   10.8966 C.ar    1  UNL1       -0.0001
      8 C          63.3222   84.5099    9.9314 C.ar    1  UNL1        0.0031
      9 C          63.8757   83.2002   10.4090 C.ar    1  UNL1        0.0366
     10 C          63.7440   82.8117   11.8518 C.ar    1  UNL1        0.1360
     11 C          63.0587   83.7329   12.8170 C.ar    1  UNL1        0.0294
     12 C          62.5052   85.0427   12.3394 C.ar    1  UNL1        0.0001
     13 C          63.0786   83.0851   14.1697 C.3     1  UNL1        0.1208
     14 N          62.5021   83.6583   15.4303 N.3     1  UNL1       -0.3157
     15 C          63.7761   81.7634   14.0405 C.3     1  UNL1        0.2253
     16 O          64.1874   81.5944   12.6080 O.3     1  UNL1       -0.4739
     17 H          62.0872   84.5686   15.2312 H       1  UNL1        0.1192
     18 H          63.2419   83.7663   16.1241 H       1  UNL1        0.1192
     19 C          58.6476   86.9059    7.4650 C.3     1  UNL1        0.0047
     20 C          59.5089   88.1062    7.7250 C.3     1  UNL1        0.0223
     21 C          59.3596   89.3343    6.8767 C.3     1  UNL1        0.0047
     22 C          62.4437   90.6147   11.2026 C.3     1  UNL1        0.2320
     23 O          62.9679   90.6141   12.6081 O.3     1  UNL1       -0.4710
     24 C          64.3374   91.1529   12.8980 C.ar    1  UNL1        0.1354
     25 C          64.9638   92.1493   11.9680 C.ar    1  UNL1        0.0366
     26 C          66.3333   92.6881   12.2580 C.ar    1  UNL1        0.0031
     27 C          67.0765   92.2305   13.4779 C.ar    1  UNL1       -0.0001
     28 C          66.4502   91.2341   14.4079 C.ar    1  UNL1       -0.0009
     29 C          65.0807   90.6953   14.1180 C.ar    1  UNL1        0.0174
     30 C          64.4544   89.6989   15.0479 C.3     1  UNL1        0.0710
     31 C          63.3630   90.1285   15.9829 C.2     1  UNL1        0.0548
     32 O          62.1112   89.3106   16.1007 O.co2   1  UNL1       -0.5488
     33 O          63.5233   91.3761   16.8001 O.co2   1  UNL1       -0.5488
@<TRIPOS>UNITY_ATOM_ATTR
32 1
charge -1
@<TRIPOS>BOND
     1    19    20    1
     2    20    21    1
     3    20     1    1
     4     1     2   ar
     5     2     3   ar
     6     3    22    1
     7    22    23    1
     8    23    24    1
     9    24    25   ar
    10    25    26   ar
    11    26    27   ar
    12    27    28   ar
    13    28    29   ar
    14    29    30    1
    15    30    31    1
    16    31    32   ar
    17    31    33   ar
    18     3     4   ar
    19     4     5   ar
    20     5     7    1
    21     7     8   ar
    22     8     9   ar
    23     9    10   ar
    24    10    11   ar
    25    11    12   ar
    26    11    13    1
    27    13    14    1
    28    13    15    1
    29    15    16    1
    30     5     6   ar
    31     6     1   ar
    32    29    24   ar
    33    12     7   ar
    34    16    10    1
    35    14    17    1
    36    14    18    1
@<TRIPOS>MOLECULE
*****
 33 36 0 0 0
SMALL
GASTEIGER

@<TRIPOS>ATOM
      1 C          62.8259   88.7562   11.8994 C.ar    1  UNL1       -0.0227
      2 C          62.8964   87.3359   12.3769 C.ar    1  UNL1       -0.0050
      3 C          63.6993   86.9938   13.5969 C.ar    1  UNL1        0.0208
      4 C          64.4316   88.0720   14.3394 C.ar    1  UNL1       -0.0007
      5 C          64.3611   89.4922   13.8619 C.ar    1  UNL1       -0.0005
      6 C          63.5582   89.8343   12.6419 C.ar    1  UNL1       -0.0043
      7 C          65.0935   90.5704   14.6044 C.ar    1  UNL1       -0.0001
      8 C          64.4163   91.3020   15.7251 C.ar    1  UNL1        0.0031
      9 C          65.1486   92.3801   16.4675 C.ar    1  UNL1        0.0366
     10 C          66.5582   92.7266   16.0892 C.ar    1  UNL1        0.1360
     11 C          67.2354   91.9950   14.9685 C.ar    1  UNL1        0.0294
     12 C          66.5030   90.9169   14.2261 C.ar    1  UNL1        0.0001
     13 C          68.6207   92.5512   14.8221 C.3     1  UNL1        0.1208
     14 N          69.6469   92.1095   13.8212 N.3     1  UNL1       -0.3157
     15 C          68.7997   93.6266   15.8524 C.3     1  UNL1        0.2253
     16 O          67.5250   93.7350   16.6356 O.3     1  UNL1       -0.4739
     17 H          69.2596   91.3629   13.2441 H       1  UNL1        0.1192
     18 H          70.4737   91.7669   14.3105 H       1  UNL1        0.1192
     19 C          61.2688   90.3934   10.6168 C.3     1  UNL1        0.0047
     20 C          62.0230   89.0982   10.6794 C.3     1  UNL1        0.0223
     21 C          61.9742   88.1452    9.5222 C.3     1  UNL1        0.0047
     22 C          63.7698   85.5736   14.0744 C.3     1  UNL1        0.2320
     23 O          62.5183   84.7528   14.1740 O.3     1  UNL1       -0.4710
     24 C          62.5156   83.3290   13.7020 C.ar    1  UNL1        0.1354
     25 C          62.3074   82.2139   14.6834 C.ar    1  UNL1        0.0366
     26 C          62.3047   80.7901   14.2114 C.ar    1  UNL1        0.0031
     27 C          62.5103   80.4814   12.7580 C.ar    1  UNL1       -0.0001
     28 C          62.7185   81.5965   11.7766 C.ar    1  UNL1       -0.0009
     29 C          62.7212   83.0203   12.2486 C.ar    1  UNL1        0.0174
     30 C          62.9294   84.1353   11.2671 C.3     1  UNL1        0.0710
     31 C          63.7078   83.8910   10.0084 C.2     1  UNL1        0.0548
     32 O          64.8408   82.9081   10.0061 O.co2   1  UNL1       -0.5488
     33 O          63.3531   84.6296    8.7520 O.co2   1  UNL1       -0.5488
@<TRIPOS>UNITY_ATOM_ATTR
32 1
charge -1
@<TRIPOS>BOND
     1    19    20    1
     2    20    21    1
     3    20     1    1
     4     1     2   ar
     5     2     3   ar
     6     3    22    1
     7    22    23    1
     8    23    24    1
     9    24    25   ar
    10    25    26   ar
    11    26    27   ar
    12    27    28   ar
    13    28    29   ar
    14    29    30    1
    15    30    31    1
    16    31    32   ar
    17    31    33   ar
    18     3     4   ar
    19     4     5   ar
    20     5     7    1
    21     7     8   ar
    22     8     9   ar
    23     9    10   ar
    24    10    11   ar
    25    11    12   ar
    26    11    13    1
    27    13    14    1
    28    13    15    1
    29    15    16    1
    30     5     6   ar
    31     6     1   ar
    32    29    24   ar
    33    12     7   ar
    34    16    10    1
    35    14    17    1
    36    14    18    1
@<TRIPOS>MOLECULE
*****
 33 36 0 0 0
SMALL
GASTEIGER

@<TRIPOS>ATOM
      1 C          62.8487   88.8200   11.8733 C.ar    1  UNL1       -0.0227
      2 C          62.8956   87.4037   12.3651 C.ar    1  UNL1       -0.0050
      3 C          63.6826   87.0627   13.5957 C.ar    1  UNL1        0.0208
      4 C          64.4226   88.1382   14.3346 C.ar    1  UNL1       -0.0007
      5 C          64.3756   89.5545   13.8429 C.ar    1  UNL1       -0.0005
      6 C          63.5887   89.8954   12.6122 C.ar    1  UNL1       -0.0043
      7 C          65.1156   90.6299   14.5818 C.ar    1  UNL1       -0.0001
      8 C          64.4410   91.3755   15.6948 C.ar    1  UNL1        0.0031
      9 C          65.1810   92.4508   16.4337 C.ar    1  UNL1        0.0366
     10 C          66.5956   92.7806   16.0594 C.ar    1  UNL1        0.1360
     11 C          67.2703   92.0351   14.9464 C.ar    1  UNL1        0.0294
     12 C          66.5303   90.9597   14.2075 C.ar    1  UNL1        0.0001
     13 C          68.6618   92.5763   14.8026 C.3     1  UNL1        0.1208
     14 N          69.6878   92.1179   13.8091 N.3     1  UNL1       -0.3157
     15 C          68.8472   93.6564   15.8269 C.3     1  UNL1        0.2253
     16 O          67.5703   93.7827   16.6037 O.3     1  UNL1       -0.4739
     17 H          69.2955   91.3716   13.2350 H       1  UNL1        0.1192
     18 H          70.5090   91.7701   14.3042 H       1  UNL1        0.1192
     19 C          61.8145   88.1145    9.5967 C.3     1  UNL1        0.0047
     20 C          62.0618   89.1610   10.6427 C.3     1  UNL1        0.0223
     21 C          61.5221   90.5483   10.4579 C.3     1  UNL1        0.0047
     22 C          63.7295   85.6464   14.0875 C.3     1  UNL1        0.2320
     23 O          62.6897   84.6623   13.6400 O.3     1  UNL1       -0.4710
     24 C          63.0022   83.6877   12.5434 C.ar    1  UNL1        0.1354
     25 C          63.6181   84.1707   11.2637 C.ar    1  UNL1        0.0366
     26 C          63.9305   83.1961   10.1671 C.ar    1  UNL1        0.0031
     27 C          63.6270   81.7386   10.3500 C.ar    1  UNL1       -0.0001
     28 C          63.0111   81.2556   11.6296 C.ar    1  UNL1       -0.0009
     29 C          62.6987   82.2301   12.7263 C.ar    1  UNL1        0.0174
     30 C          62.0828   81.7471   14.0059 C.3     1  UNL1        0.0710
     31 C          61.2432   80.5042   14.0118 C.2     1  UNL1        0.0548
     32 O          59.7919   80.5812   14.3826 O.co2   1  UNL1       -0.5488
     33 O          61.8550   79.1841   13.6469 O.co2   1  UNL1       -0.5488
@<TRIPOS>UNITY_ATOM_ATTR
32 1
charge -1
@<TRIPOS>BOND
     1    19    20    1
     2    20    21    1
     3    20     1    1
     4     1     2   ar
     5     2     3   ar
     6     3    22    1
     7    22    23    1
     8    23    24    1
     9    24    25   ar
    10    25    26   ar
    11    26    27   ar
    12    27    28   ar
    13    28    29   ar
    14    29    30    1
    15    30    31    1
    16    31    32   ar
    17    31    33   ar
    18     3     4   ar
    19     4     5   ar
    20     5     7    1
    21     7     8   ar
    22     8     9   ar
    23     9    10   ar
    24    10    11   ar
    25    11    12   ar
    26    11    13    1
    27    13    14    1
    28    13    15    1
    29    15    16    1
    30     5     6   ar
    31     6     1   ar
    32    29    24   ar
    33    12     7   ar
    34    16    10    1
    35    14    17    1
    36    14    18    1
@<TRIPOS>MOLECULE
*****
 33 36 0 0 0
SMALL
GASTEIGER

@<TRIPOS>ATOM
      1 C          60.7162   87.5368    8.9098 C.ar    1  UNL1       -0.0227
      2 C          61.2004   86.1183    8.9688 C.ar    1  UNL1       -0.0050
      3 C          62.2601   85.7280    9.9561 C.ar    1  UNL1        0.0208
      4 C          62.8355   86.7562   10.8844 C.ar    1  UNL1       -0.0007
      5 C          62.3513   88.1747   10.8254 C.ar    1  UNL1       -0.0005
      6 C          61.2916   88.5649    9.8380 C.ar    1  UNL1       -0.0043
      7 C          62.9267   89.2029   11.7537 C.ar    1  UNL1       -0.0001
      8 C          63.5159   90.4666   11.2006 C.ar    1  UNL1        0.0031
      9 C          64.0913   91.4947   12.1289 C.ar    1  UNL1        0.0366
     10 C          64.0775   91.2592   13.6102 C.ar    1  UNL1        0.1360
     11 C          63.4882   89.9956   14.1633 C.ar    1  UNL1        0.0294
     12 C          62.9128   88.9674   13.2350 C.ar    1  UNL1        0.0001
     13 C          63.6145   90.0404   15.6573 C.3     1  UNL1        0.1208
     14 N          63.1542   88.9800   16.6131 N.3     1  UNL1       -0.3157
     15 C          64.2818   91.3317   16.0276 C.3     1  UNL1        0.2253
     16 O          64.5679   92.0851   14.7625 O.3     1  UNL1       -0.4739
     17 H          62.7355   88.2102   16.0911 H       1  UNL1        0.1192
     18 H          62.4627   89.3741   17.2510 H       1  UNL1        0.1192
     19 C          58.6019   86.9376    7.5238 C.3     1  UNL1        0.0047
     20 C          59.6565   87.9271    7.9224 C.3     1  UNL1        0.0223
     21 C          59.6515   89.3067    7.3337 C.3     1  UNL1        0.0047
     22 C          62.7443   84.3096   10.0152 C.3     1  UNL1        0.2320
     23 O          63.6014   83.8567   11.1598 O.3     1  UNL1       -0.4710
     24 C          63.1050   82.7928   12.0934 C.ar    1  UNL1        0.1354
     25 C          63.0681   81.3611   11.6473 C.ar    1  UNL1        0.0366
     26 C          62.5717   80.2971   12.5809 C.ar    1  UNL1        0.0031
     27 C          62.1121   80.6649   13.9606 C.ar    1  UNL1       -0.0001
     28 C          62.1490   82.0965   14.4067 C.ar    1  UNL1       -0.0009
     29 C          62.6454   83.1604   13.4732 C.ar    1  UNL1        0.0174
     30 C          62.6822   84.5921   13.9193 C.3     1  UNL1        0.0710
     31 C          63.9172   85.1442   14.5673 C.2     1  UNL1        0.0548
     32 O          65.2404   84.4701   14.3558 O.co2   1  UNL1       -0.5488
     33 O          63.8291   86.3704   15.4267 O.co2   1  UNL1       -0.5488
@<TRIPOS>UNITY_ATOM_ATTR
32 1
charge -1
@<TRIPOS>BOND
     1    19    20    1
     2    20    21    1
     3    20     1    1
     4     1     2   ar
     5     2     3   ar
     6     3    22    1
     7    22    23    1
     8    23    24    1
     9    24    25   ar
    10    25    26   ar
    11    26    27   ar
    12    27    28   ar
    13    28    29   ar
    14    29    30    1
    15    30    31    1
    16    31    32   ar
    17    31    33   ar
    18     3     4   ar
    19     4     5   ar
    20     5     7    1
    21     7     8   ar
    22     8     9   ar
    23     9    10   ar
    24    10    11   ar
    25    11    12   ar
    26    11    13    1
    27    13    14    1
    28    13    15    1
    29    15    16    1
    30     5     6   ar
    31     6     1   ar
    32    29    24   ar
    33    12     7   ar
    34    16    10    1
    35    14    17    1
    36    14    18    1
@<TRIPOS>MOLECULE
*****
 33 36 0 0 0
SMALL
GASTEIGER

@<TRIPOS>ATOM
      1 C          60.7212   88.1548    9.0701 C.ar    1  UNL1       -0.0227
      2 C          60.8562   86.6942    9.3841 C.ar    1  UNL1       -0.0050
      3 C          61.7862   86.2438   10.4714 C.ar    1  UNL1        0.0208
      4 C          62.5812   87.2538   11.2447 C.ar    1  UNL1       -0.0007
      5 C          62.4461   88.7143   10.9306 C.ar    1  UNL1       -0.0005
      6 C          61.5162   89.1648    9.8433 C.ar    1  UNL1       -0.0043
      7 C          63.2411   89.7244   11.7038 C.ar    1  UNL1       -0.0001
      8 C          63.3922   89.5821   13.1894 C.ar    1  UNL1        0.0031
      9 C          64.1872   90.5921   13.9625 C.ar    1  UNL1        0.0366
     10 C          64.8309   91.7446   13.2502 C.ar    1  UNL1        0.1360
     11 C          64.6798   91.8869   11.7646 C.ar    1  UNL1        0.0294
     12 C          63.8849   90.8768   10.9915 C.ar    1  UNL1        0.0001
     13 C          65.4231   93.1183   11.3390 C.3     1  UNL1        0.1208
     14 N          65.5360   93.6395    9.9370 N.3     1  UNL1       -0.3157
     15 C          66.0336   93.7370   12.5615 C.3     1  UNL1        0.2253
     16 O          65.6677   92.8880   13.7427 O.3     1  UNL1       -0.4739
     17 H          65.0252   93.0245    9.3035 H       1  UNL1        0.1192
     18 H          66.5182   93.6694    9.6635 H       1  UNL1        0.1192
     19 C          59.8556   90.0163    7.4777 C.3     1  UNL1        0.0047
     20 C          59.7913   88.6053    7.9828 C.3     1  UNL1        0.0223
     21 C          58.7970   87.6449    7.4006 C.3     1  UNL1        0.0047
     22 C          61.9212   84.7833   10.7855 C.3     1  UNL1        0.2320
     23 O          62.9275   84.3239   11.7986 O.3     1  UNL1       -0.4710
     24 C          62.7718   82.9849   12.4565 C.ar    1  UNL1        0.1354
     25 C          62.9374   81.7300   11.6517 C.ar    1  UNL1        0.0366
     26 C          62.7817   80.3910   12.3097 C.ar    1  UNL1        0.0031
     27 C          62.4604   80.3070   13.7725 C.ar    1  UNL1       -0.0001
     28 C          62.2949   81.5619   14.5773 C.ar    1  UNL1       -0.0009
     29 C          62.4506   82.9009   13.9194 C.ar    1  UNL1        0.0174
     30 C          62.2851   84.1558   14.7242 C.3     1  UNL1        0.0710
     31 C          63.4932   84.9165   15.1843 C.2     1  UNL1        0.0548
     32 O          64.8592   84.5072   14.7192 O.co2   1  UNL1       -0.5488
     33 O          63.3352   86.0865   16.1096 O.co2   1  UNL1       -0.5488
@<TRIPOS>UNITY_ATOM_ATTR
32 1
charge -1
@<TRIPOS>BOND
     1    19    20    1
     2    20    21    1
     3    20     1    1
     4     1     2   ar
     5     2     3   ar
     6     3    22    1
     7    22    23    1
     8    23    24    1
     9    24    25   ar
    10    25    26   ar
    11    26    27   ar
    12    27    28   ar
    13    28    29   ar
    14    29    30    1
    15    30    31    1
    16    31    32   ar
    17    31    33   ar
    18     3     4   ar
    19     4     5   ar
    20     5     7    1
    21     7     8   ar
    22     8     9   ar
    23     9    10   ar
    24    10    11   ar
    25    11    12   ar
    26    11    13    1
    27    13    14    1
    28    13    15    1
    29    15    16    1
    30     5     6   ar
    31     6     1   ar
    32    29    24   ar
    33    12     7   ar
    34    16    10    1
    35    14    17    1
    36    14    18    1
@<TRIPOS>MOLECULE
*****
 33 36 0 0 0
SMALL
GASTEIGER

@<TRIPOS>ATOM
      1 C          63.7102   90.6054   14.1703 C.ar    1  UNL1       -0.0227
      2 C          62.7111   89.7665   13.4299 C.ar    1  UNL1       -0.0050
      3 C          62.6587   89.8102   11.9315 C.ar    1  UNL1        0.0208
      4 C          63.6055   90.6929   11.1734 C.ar    1  UNL1       -0.0007
      5 C          64.6045   91.5318   11.9138 C.ar    1  UNL1       -0.0005
      6 C          64.6569   91.4880   13.4122 C.ar    1  UNL1       -0.0043
      7 C          65.5513   92.4144   11.1557 C.ar    1  UNL1       -0.0001
      8 C          66.9498   91.9494   10.8767 C.ar    1  UNL1        0.0031
      9 C          67.8965   92.8321   10.1187 C.ar    1  UNL1        0.0366
     10 C          67.4446   94.1798    9.6396 C.ar    1  UNL1        0.1360
     11 C          66.0461   94.6448    9.9186 C.ar    1  UNL1        0.0294
     12 C          65.0995   93.7622   10.6766 C.ar    1  UNL1        0.0001
     13 C          65.8857   96.0132    9.3255 C.3     1  UNL1        0.1208
     14 N          64.6439   96.8534    9.3701 N.3     1  UNL1       -0.3157
     15 C          67.1851   96.3939    8.6800 C.3     1  UNL1        0.2253
     16 O          68.1486   95.2608    8.8741 O.3     1  UNL1       -0.4739
     17 H          63.9112   96.3508    9.8710 H       1  UNL1        0.1192
     18 H          64.3322   97.0501    8.4191 H       1  UNL1        0.1192
     19 C          63.1958   89.3839   16.4049 C.3     1  UNL1        0.0047
     20 C          63.7626   90.5616   15.6687 C.3     1  UNL1        0.0223
     21 C          64.3816   91.6955   16.4310 C.3     1  UNL1        0.0047
     22 C          61.6597   88.9714   11.1911 C.3     1  UNL1        0.2320
     23 O          61.4819   87.5257   11.5495 O.3     1  UNL1       -0.4710
     24 C          62.1126   86.4601   10.7029 C.ar    1  UNL1        0.1354
     25 C          62.1925   86.6336    9.2151 C.ar    1  UNL1        0.0366
     26 C          62.8232   85.5679    8.3686 C.ar    1  UNL1        0.0031
     27 C          63.3740   84.3288    9.0099 C.ar    1  UNL1       -0.0001
     28 C          63.2941   84.1553   10.4977 C.ar    1  UNL1       -0.0009
     29 C          62.6634   85.2209   11.3442 C.ar    1  UNL1        0.0174
     30 C          62.5835   85.0475   12.8320 C.3     1  UNL1        0.0710
     31 C          63.8000   85.2733   13.6798 C.2     1  UNL1        0.0548
     32 O          64.8099   84.1773   13.8495 O.co2   1  UNL1       -0.5488
     33 O          64.0067   86.5952   14.3580 O.co2   1  UNL1       -0.5488
@<TRIPOS>UNITY_ATOM_ATTR
32 1
charge -1
@<TRIPOS>BOND
     1    19    20    1
     2    20    21    1
     3    20     1    1
     4     1     2   ar
     5     2     3   ar
     6     3    22    1
     7    22    23    1
     8    23    24    1
     9    24    25   ar
    10    25    26   ar
    11    26    27   ar
    12    27    28   ar
    13    28    29   ar
    14    29    30    1
    15    30    31    1
    16    31    32   ar
    17    31    33   ar
    18     3     4   ar
    19     4     5   ar
    20     5     7    1
    21     7     8   ar
    22     8     9   ar
    23     9    10   ar
    24    10    11   ar
    25    11    12   ar
    26    11    13    1
    27    13    14    1
    28    13    15    1
    29    15    16    1
    30     5     6   ar
    31     6     1   ar
    32    29    24   ar
    33    12     7   ar
    34    16    10    1
    35    14    17    1
    36    14    18    1
@<TRIPOS>MOLECULE
*****
 33 36 0 0 0
SMALL
GASTEIGER

@<TRIPOS>ATOM
      1 C          63.8457   86.5791   13.8343 C.ar    1  UNL1       -0.0227
      2 C          63.0289   86.7901   12.5939 C.ar    1  UNL1       -0.0050
      3 C          62.8598   88.1711   12.0332 C.ar    1  UNL1        0.0208
      4 C          63.5075   89.3410   12.7129 C.ar    1  UNL1       -0.0007
      5 C          64.3243   89.1299   13.9532 C.ar    1  UNL1       -0.0005
      6 C          64.4934   87.7490   14.5139 C.ar    1  UNL1       -0.0043
      7 C          64.9720   90.2998   14.6328 C.ar    1  UNL1       -0.0001
      8 C          64.2272   91.0595   15.6902 C.ar    1  UNL1        0.0031
      9 C          64.8750   92.2294   16.3698 C.ar    1  UNL1        0.0366
     10 C          66.2675   92.6395   15.9919 C.ar    1  UNL1        0.1360
     11 C          67.0122   91.8798   14.9345 C.ar    1  UNL1        0.0294
     12 C          66.3645   90.7100   14.2550 C.ar    1  UNL1        0.0001
     13 C          68.3626   92.5127   14.7735 C.3     1  UNL1        0.1208
     14 N          69.4349   92.0720   13.8217 N.3     1  UNL1       -0.3157
     15 C          68.4524   93.6635   15.7314 C.3     1  UNL1        0.2253
     16 O          67.1576   93.7419   16.4845 O.3     1  UNL1       -0.4739
     17 H          69.1073   91.2654   13.2902 H       1  UNL1        0.1192
     18 H          70.2713   91.8164   14.3465 H       1  UNL1        0.1192
     19 C          63.9537   84.9780   15.8776 C.3     1  UNL1        0.0047
     20 C          64.0148   85.1981   14.3950 C.3     1  UNL1        0.0223
     21 C          64.2449   84.0374   13.4733 C.3     1  UNL1        0.0047
     22 C          62.0431   88.3821   10.7930 C.3     1  UNL1        0.2320
     23 O          61.0842   87.3225   10.3370 O.3     1  UNL1       -0.4710
     24 C          61.4304   86.4515    9.1660 C.ar    1  UNL1        0.1354
     25 C          62.6716   85.6098    9.1983 C.ar    1  UNL1        0.0366
     26 C          63.0178   84.7387    8.0272 C.ar    1  UNL1        0.0031
     27 C          62.1228   84.7093    6.8239 C.ar    1  UNL1       -0.0001
     28 C          60.8816   85.5509    6.7916 C.ar    1  UNL1       -0.0009
     29 C          60.5354   86.4220    7.9626 C.ar    1  UNL1        0.0174
     30 C          59.2941   87.2636    7.9303 C.3     1  UNL1        0.0710
     31 C          59.3916   88.7330    7.6455 C.2     1  UNL1        0.0548
     32 O          59.8246   89.6793    8.7257 O.co2   1  UNL1       -0.5488
     33 O          59.0559   89.2563    6.2803 O.co2   1  UNL1       -0.5488
@<TRIPOS>UNITY_ATOM_ATTR
32 1
charge -1
@<TRIPOS>BOND
     1    19    20    1
     2    20    21    1
     3    20     1    1
     4     1     2   ar
     5     2     3   ar
     6     3    22    1
     7    22    23    1
     8    23    24    1
     9    24    25   ar
    10    25    26   ar
    11    26    27   ar
    12    27    28   ar
    13    28    29   ar
    14    29    30    1
    15    30    31    1
    16    31    32   ar
    17    31    33   ar
    18     3     4   ar
    19     4     5   ar
    20     5     7    1
    21     7     8   ar
    22     8     9   ar
    23     9    10   ar
    24    10    11   ar
    25    11    12   ar
    26    11    13    1
    27    13    14    1
    28    13    15    1
    29    15    16    1
    30     5     6   ar
    31     6     1   ar
    32    29    24   ar
    33    12     7   ar
    34    16    10    1
    35    14    17    1
    36    14    18    1
@<TRIPOS>MOLECULE
*****
 33 36 0 0 0
SMALL
GASTEIGER

@<TRIPOS>ATOM
      1 C          63.1091   89.4895   11.9511 C.ar    1  UNL1       -0.0227
      2 C          63.4791   90.4887   13.0070 C.ar    1  UNL1       -0.0050
      3 C          63.9289   90.0195   14.3589 C.ar    1  UNL1        0.0208
      4 C          64.0087   88.5511   14.6549 C.ar    1  UNL1       -0.0007
      5 C          63.6387   87.5520   13.5991 C.ar    1  UNL1       -0.0005
      6 C          63.1889   88.0212   12.2472 C.ar    1  UNL1       -0.0043
      7 C          63.7186   86.0836   13.8951 C.ar    1  UNL1       -0.0001
      8 C          63.9241   85.6127   15.3043 C.ar    1  UNL1        0.0031
      9 C          64.0040   84.1444   15.6003 C.ar    1  UNL1        0.0366
     10 C          63.8782   83.1470   14.4871 C.ar    1  UNL1        0.1360
     11 C          63.6726   83.6179   13.0778 C.ar    1  UNL1        0.0294
     12 C          63.5928   85.0862   12.7819 C.ar    1  UNL1        0.0001
     13 C          63.5839   82.4095   12.1936 C.3     1  UNL1        0.1208
     14 N          63.3801   82.4174   10.7076 N.3     1  UNL1       -0.3157
     15 C          63.7346   81.1917   13.0564 C.3     1  UNL1        0.2253
     16 O          63.9165   81.6475   14.4738 O.3     1  UNL1       -0.4739
     17 H          63.3094   83.3806   10.3792 H       1  UNL1        0.1192
     18 H          62.5214   81.9165   10.4794 H       1  UNL1        0.1192
     19 C          63.1513   91.2682   10.0579 C.3     1  UNL1        0.0047
     20 C          62.6593   89.9586   10.5993 C.3     1  UNL1        0.0223
     21 C          61.7176   89.1183    9.7888 C.3     1  UNL1        0.0047
     22 C          64.2988   91.0187   15.4147 C.3     1  UNL1        0.2320
     23 O          64.9714   92.3028   15.0293 O.3     1  UNL1       -0.4710
     24 C          66.4688   92.3867   15.0032 C.ar    1  UNL1        0.1354
     25 C          67.2304   92.6002   16.2777 C.ar    1  UNL1        0.0366
     26 C          68.7279   92.6841   16.2515 C.ar    1  UNL1        0.0031
     27 C          69.4637   92.5545   14.9508 C.ar    1  UNL1       -0.0001
     28 C          68.7021   92.3410   13.6763 C.ar    1  UNL1       -0.0009
     29 C          67.2047   92.2571   13.7025 C.ar    1  UNL1        0.0174
     30 C          66.4431   92.0436   12.4279 C.3     1  UNL1        0.0710
     31 C          66.5831   93.0201   11.2980 C.2     1  UNL1        0.0548
     32 O          65.4879   94.0063   11.0190 O.co2   1  UNL1       -0.5488
     33 O          67.8183   93.0104   10.4471 O.co2   1  UNL1       -0.5488
@<TRIPOS>UNITY_ATOM_ATTR
32 1
charge -1
@<TRIPOS>BOND
     1    19    20    1
     2    20    21    1
     3    20     1    1
     4     1     2   ar
     5     2     3   ar
     6     3    22    1
     7    22    23    1
     8    23    24    1
     9    24    25   ar
    10    25    26   ar
    11    26    27   ar
    12    27    28   ar
    13    28    29   ar
    14    29    30    1
    15    30    31    1
    16    31    32   ar
    17    31    33   ar
    18     3     4   ar
    19     4     5   ar
    20     5     7    1
    21     7     8   ar
    22     8     9   ar
    23     9    10   ar
    24    10    11   ar
    25    11    12   ar
    26    11    13    1
    27    13    14    1
    28    13    15    1
    29    15    16    1
    30     5     6   ar
    31     6     1   ar
    32    29    24   ar
    33    12     7   ar
    34    16    10    1
    35    14    17    1
    36    14    18    1
@<TRIPOS>MOLECULE
*****
 33 36 0 0 0
SMALL
GASTEIGER

@<TRIPOS>ATOM
      1 C          60.6878   88.1131    9.1843 C.ar    1  UNL1       -0.0227
      2 C          60.8127   86.8353    9.9600 C.ar    1  UNL1       -0.0050
      3 C          61.7931   86.7373   11.0910 C.ar    1  UNL1        0.0208
      4 C          62.6486   87.9171   11.4464 C.ar    1  UNL1       -0.0007
      5 C          62.5236   89.1949   10.6707 C.ar    1  UNL1       -0.0005
      6 C          61.5432   89.2929    9.5397 C.ar    1  UNL1       -0.0043
      7 C          63.3791   90.3747   11.0261 C.ar    1  UNL1       -0.0001
      8 C          63.6511   91.4388   10.0044 C.ar    1  UNL1        0.0031
      9 C          64.5065   92.6185   10.3598 C.ar    1  UNL1        0.0366
     10 C          65.0900   92.7343   11.7368 C.ar    1  UNL1        0.1360
     11 C          64.8180   91.6702   12.7585 C.ar    1  UNL1        0.0294
     12 C          63.9625   90.4905   12.4031 C.ar    1  UNL1        0.0001
     13 C          65.5240   92.0528   14.0254 C.3     1  UNL1        0.1208
     14 N          65.5220   91.2720   15.3061 N.3     1  UNL1       -0.3157
     15 C          66.2324   93.3533   13.7868 C.3     1  UNL1        0.2253
     16 O          65.9641   93.7745   12.3724 O.3     1  UNL1       -0.4739
     17 H          64.9611   90.4281   15.1890 H       1  UNL1        0.1192
     18 H          65.1250   91.8433   16.0520 H       1  UNL1        0.1192
     19 C          59.6094   89.4762    7.2532 C.3     1  UNL1        0.0047
     20 C          59.7073   88.2111    8.0533 C.3     1  UNL1        0.0223
     21 C          58.8249   87.0442    7.7224 C.3     1  UNL1        0.0047
     22 C          61.9181   85.4595   11.8666 C.3     1  UNL1        0.2320
     23 O          63.1354   84.5985   11.7026 O.3     1  UNL1       -0.4710
     24 C          63.1935   83.2496   12.3559 C.ar    1  UNL1        0.1354
     25 C          62.6436   82.0481   11.6460 C.ar    1  UNL1        0.0366
     26 C          62.7018   80.6991   12.2994 C.ar    1  UNL1        0.0031
     27 C          63.3098   80.5516   13.6626 C.ar    1  UNL1       -0.0001
     28 C          63.8597   81.7531   14.3725 C.ar    1  UNL1       -0.0009
     29 C          63.8016   83.1021   13.7192 C.ar    1  UNL1        0.0174
     30 C          64.3515   84.3036   14.4292 C.3     1  UNL1        0.0710
     31 C          63.4293   85.2197   15.1776 C.2     1  UNL1        0.0548
     32 O          63.8630   86.6183   15.5029 O.co2   1  UNL1       -0.5488
     33 O          62.0735   84.7374   15.6006 O.co2   1  UNL1       -0.5488
@<TRIPOS>UNITY_ATOM_ATTR
32 1
charge -1
@<TRIPOS>BOND
     1    19    20    1
     2    20    21    1
     3    20     1    1
     4     1     2   ar
     5     2     3   ar
     6     3    22    1
     7    22    23    1
     8    23    24    1
     9    24    25   ar
    10    25    26   ar
    11    26    27   ar
    12    27    28   ar
    13    28    29   ar
    14    29    30    1
    15    30    31    1
    16    31    32   ar
    17    31    33   ar
    18     3     4   ar
    19     4     5   ar
    20     5     7    1
    21     7     8   ar
    22     8     9   ar
    23     9    10   ar
    24    10    11   ar
    25    11    12   ar
    26    11    13    1
    27    13    14    1
    28    13    15    1
    29    15    16    1
    30     5     6   ar
    31     6     1   ar
    32    29    24   ar
    33    12     7   ar
    34    16    10    1
    35    14    17    1
    36    14    18    1
