@<TRIPOS>MOLECULE
*****
 8 8 0 0 0
SMALL
GASTEIGER

@<TRIPOS>ATOM
      1 O          65.0843   82.9656   11.2064 O.3     1  UNL1       -0.5039
      2 C          64.0963   82.5640   12.2611 C.ar    1  UNL1        0.1528
      3 C          62.9668   81.6388   11.9174 C.ar    1  UNL1        0.0398
      4 C          61.9788   81.2372   12.9722 C.ar    1  UNL1        0.0238
      5 C          62.1203   81.7607   14.3707 C.ar    1  UNL1        0.0991
      6 N          63.2498   82.6859   14.7144 N.ar    1  UNL1       -0.2391
      7 C          64.2378   83.0875   13.6596 C.ar    1  UNL1        0.1353
      8 H          64.9959   82.6385   10.3328 H       1  UNL1        0.2923
@<TRIPOS>BOND
     1     1     2    1
     2     2     3   ar
     3     3     4   ar
     4     4     5   ar
     5     5     6   ar
     6     6     7   ar
     7     7     2   ar
     8     1     8    1
@<TRIPOS>MOLECULE
*****
 8 8 0 0 0
SMALL
GASTEIGER

@<TRIPOS>ATOM
      1 O          69.1571   91.6722   12.9660 O.3     1  UNL1       -0.5039
      2 C          68.0556   91.9921   13.9326 C.ar    1  UNL1        0.1528
      3 C          68.3831   92.3420   15.3540 C.ar    1  UNL1        0.0398
      4 C          67.2816   92.6619   16.3205 C.ar    1  UNL1        0.0238
      5 C          65.8525   92.6318   15.8658 C.ar    1  UNL1        0.0991
      6 N          65.5250   92.2819   14.4445 N.ar    1  UNL1       -0.2391
      7 C          66.6265   91.9620   13.4779 C.ar    1  UNL1        0.1353
      8 H          70.0498   91.6910   13.2501 H       1  UNL1        0.2923
@<TRIPOS>BOND
     1     1     2    1
     2     2     3   ar
     3     3     4   ar
     4     4     5   ar
     5     5     6   ar
     6     6     7   ar
     7     7     2   ar
     8     1     8    1
@<TRIPOS>MOLECULE
*****
 8 8 0 0 0
SMALL
GASTEIGER

@<TRIPOS>ATOM
      1 O          64.7798   92.8031   17.0361 O.3     1  UNL1       -0.5039
      2 C          65.8134   92.5019   15.9917 C.ar    1  UNL1        0.1528
      3 C          67.2474   92.8737   16.2265 C.ar    1  UNL1        0.0398
      4 C          68.2811   92.5725   15.1821 C.ar    1  UNL1        0.0238
      5 C          67.8807   91.8995   13.9028 C.ar    1  UNL1        0.0991
      6 N          66.4466   91.5276   13.6679 N.ar    1  UNL1       -0.2391
      7 C          65.4130   91.8289   14.7124 C.ar    1  UNL1        0.1353
      8 H          65.0299   93.2236   17.8353 H       1  UNL1        0.2923
@<TRIPOS>BOND
     1     1     2    1
     2     2     3   ar
     3     3     4   ar
     4     4     5   ar
     5     5     6   ar
     6     6     7   ar
     7     7     2   ar
     8     1     8    1
@<TRIPOS>MOLECULE
*****
 8 8 0 0 0
SMALL
GASTEIGER

@<TRIPOS>ATOM
      1 O          62.2003   81.1293   14.7716 O.3     1  UNL1       -0.5039
      2 C          62.4050   82.3927   13.9895 C.ar    1  UNL1        0.1528
      3 C          62.5908   82.3324   12.5023 C.ar    1  UNL1        0.0398
      4 C          62.7955   83.5959   11.7201 C.ar    1  UNL1        0.0238
      5 C          62.8143   84.9197   12.4252 C.ar    1  UNL1        0.0991
      6 N          62.6285   84.9800   13.9124 N.ar    1  UNL1       -0.2391
      7 C          62.4238   83.7165   14.6945 C.ar    1  UNL1        0.1353
      8 H          62.1885   80.3023   14.3312 H       1  UNL1        0.2923
@<TRIPOS>BOND
     1     1     2    1
     2     2     3   ar
     3     3     4   ar
     4     4     5   ar
     5     5     6   ar
     6     6     7   ar
     7     7     2   ar
     8     1     8    1
@<TRIPOS>MOLECULE
*****
 8 8 0 0 0
SMALL
GASTEIGER

@<TRIPOS>ATOM
      1 O          58.3480   86.7023    7.7144 O.3     1  UNL1       -0.5039
      2 C          59.5875   87.1704    8.4175 C.ar    1  UNL1        0.1528
      3 C          60.6198   86.1760    8.8599 C.ar    1  UNL1        0.0398
      4 C          61.8593   86.6442    9.5630 C.ar    1  UNL1        0.0238
      5 C          62.0666   88.1067    9.8238 C.ar    1  UNL1        0.0991
      6 N          61.0344   89.1011    9.3814 N.ar    1  UNL1       -0.2391
      7 C          59.7949   88.6329    8.6783 C.ar    1  UNL1        0.1353
      8 H          58.2185   85.7887    7.5515 H       1  UNL1        0.2923
@<TRIPOS>BOND
     1     1     2    1
     2     2     3   ar
     3     3     4   ar
     4     4     5   ar
     5     5     6   ar
     6     6     7   ar
     7     7     2   ar
     8     1     8    1
@<TRIPOS>MOLECULE
*****
 8 8 0 0 0
SMALL
GASTEIGER

@<TRIPOS>ATOM
      1 O          46.5738   80.0539    9.1093 O.3     1  UNL1       -0.5039
      2 C          45.9480   79.1505    8.0884 C.ar    1  UNL1        0.1528
      3 C          45.7183   79.6439    6.6907 C.ar    1  UNL1        0.0398
      4 C          45.0925   78.7405    5.6698 C.ar    1  UNL1        0.0238
      5 C          44.6963   77.3437    6.0466 C.ar    1  UNL1        0.0991
      6 N          44.9260   76.8504    7.4444 N.ar    1  UNL1       -0.2391
      7 C          45.5518   77.7538    8.4653 C.ar    1  UNL1        0.1353
      8 H          46.8213   80.9265    8.8739 H       1  UNL1        0.2923
@<TRIPOS>BOND
     1     1     2    1
     2     2     3   ar
     3     3     4   ar
     4     4     5   ar
     5     5     6   ar
     6     6     7   ar
     7     7     2   ar
     8     1     8    1
@<TRIPOS>MOLECULE
*****
 8 8 0 0 0
SMALL
GASTEIGER

@<TRIPOS>ATOM
      1 O          65.0132   82.6738   11.1251 O.3     1  UNL1       -0.5039
      2 C          64.1588   82.7990   12.3516 C.ar    1  UNL1        0.1528
      3 C          63.6036   84.1356   12.7456 C.ar    1  UNL1        0.0398
      4 C          62.7492   84.2608   13.9720 C.ar    1  UNL1        0.0238
      5 C          62.4500   83.0495   14.8046 C.ar    1  UNL1        0.0991
      6 N          63.0052   81.7129   14.4106 N.ar    1  UNL1       -0.2391
      7 C          63.8596   81.5877   13.1841 C.ar    1  UNL1        0.1353
      8 H          65.2001   83.4305   10.6050 H       1  UNL1        0.2923
@<TRIPOS>BOND
     1     1     2    1
     2     2     3   ar
     3     3     4   ar
     4     4     5   ar
     5     5     6   ar
     6     6     7   ar
     7     7     2   ar
     8     1     8    1
@<TRIPOS>MOLECULE
*****
 8 8 0 0 0
SMALL
GASTEIGER

@<TRIPOS>ATOM
      1 O          62.5479   85.1413   13.5979 O.3     1  UNL1       -0.5039
      2 C          62.6226   83.6555   13.4062 C.ar    1  UNL1        0.1528
      3 C          62.7919   83.0845   12.0295 C.ar    1  UNL1        0.0398
      4 C          62.8666   81.5987   11.8378 C.ar    1  UNL1        0.0238
      5 C          62.7720   80.6838   13.0227 C.ar    1  UNL1        0.0991
      6 N          62.6027   81.2548   14.3994 N.ar    1  UNL1       -0.2391
      7 C          62.5280   82.7407   14.5911 C.ar    1  UNL1        0.1353
      8 H          62.6070   85.7128   12.8577 H       1  UNL1        0.2923
@<TRIPOS>BOND
     1     1     2    1
     2     2     3   ar
     3     3     4   ar
     4     4     5   ar
     5     5     6   ar
     6     6     7   ar
     7     7     2   ar
     8     1     8    1
@<TRIPOS>MOLECULE
*****
 8 8 0 0 0
SMALL
GASTEIGER

@<TRIPOS>ATOM
      1 O          62.2011   81.9620   14.9493 O.3     1  UNL1       -0.5039
      2 C          62.9535   83.2591   14.9840 C.ar    1  UNL1        0.1528
      3 C          64.2519   83.3930   14.2450 C.ar    1  UNL1        0.0398
      4 C          65.0044   84.6901   14.2796 C.ar    1  UNL1        0.0238
      5 C          64.4584   85.8535   15.0532 C.ar    1  UNL1        0.0991
      6 N          63.1600   85.7196   15.7922 N.ar    1  UNL1       -0.2391
      7 C          62.4076   84.4225   15.7576 C.ar    1  UNL1        0.1353
      8 H          62.5421   81.2353   14.4661 H       1  UNL1        0.2923
@<TRIPOS>BOND
     1     1     2    1
     2     2     3   ar
     3     3     4   ar
     4     4     5   ar
     5     5     6   ar
     6     6     7   ar
     7     7     2   ar
     8     1     8    1
