@<TRIPOS>MOLECULE
*****
 29 31 0 0 0
SMALL
GASTEIGER

@<TRIPOS>ATOM
      1 C          64.7580   91.6585   11.9185 C.ar    1  UNL1        0.1534
      2 C          63.8055   91.5090   10.7695 C.ar    1  UNL1        0.0351
      3 C          62.8187   90.3794   10.7555 C.ar    1  UNL1        0.0722
      4 CL         61.8661   90.2297    9.6064 Cl      1  UNL1       -0.0809
      5 C          62.7845   89.3993   11.8906 C.ar    1  UNL1        0.0577
      6 C          63.7370   89.5489   13.0396 C.ar    1  UNL1        0.0462
      7 C          64.7237   90.6785   13.0535 C.ar    1  UNL1        0.1602
      8 F          65.6763   90.8281   14.2026 F       1  UNL1       -0.2027
      9 O          65.2635   93.1917   13.2946 O.2     1  UNL1       -0.1498
     10 S          65.7448   92.7882   11.9325 S.O2    1  UNL1        0.0772
     11 O          66.2262   92.3847   10.5704 O.2     1  UNL1       -0.1498
     12 N          66.7316   93.9178   11.9466 N.pl3   1  UNL1       -0.1936
     13 H          67.3745   94.0006   12.6875 H       1  UNL1        0.1758
     14 C          66.7388   94.9213   10.8316 C.ar    1  UNL1        0.1786
     15 N          67.7656   95.0223    9.7429 N.ar    1  UNL1       -0.2214
     16 C          67.3819   96.1634    8.8482 C.ar    1  UNL1        0.1079
     17 C          66.1178   96.7677    9.3839 C.ar    1  UNL1        0.0588
     18 S          65.7203   96.0000   10.6098 S.2     1  UNL1       -0.0497
     19 N          61.7976   88.2697   11.8765 N.pl3   1  UNL1       -0.3319
     20 H          60.8901   88.4044   12.2335 H       1  UNL1        0.1468
     21 C          62.1936   86.9348   11.3187 C.3     1  UNL1        0.0885
     22 C          61.6902   86.5051    9.9726 C.3     1  UNL1        0.0379
     23 C          62.5947   85.7601    9.0363 C.3     1  UNL1        0.0047
     24 C          62.0913   85.3305    7.6903 C.3     1  UNL1        0.0199
     25 C          60.6833   85.6460    7.2804 C.3     1  UNL1        0.1007
     26 N          59.7787   86.3911    8.2167 N.3     1  UNL1       -0.1697
     27 O          58.3707   86.7066    7.8068 O.3     1  UNL1       -0.3109
     28 C          60.2822   86.8207    9.5627 C.3     1  UNL1        0.1023
     29 H          58.2084   86.3611    6.9151 H       1  UNL1        0.2366
@<TRIPOS>BOND
     1     9    10    2
     2    10    11    2
     3    10    12    1
     4    12    14    1
     5    14    15   ar
     6    15    16   ar
     7    16    17   ar
     8    17    18   ar
     9    10     1    1
    10     1     2   ar
    11     2     3   ar
    12     3     4    1
    13     3     5   ar
    14     5    19    1
    15    19    21    1
    16    22    21    1
    17    22    23    1
    18    23    24    1
    19    24    25    1
    20    25    26    1
    21    26    27    1
    22    26    28    1
    23     5     6   ar
    24     6     7   ar
    25     7     8    1
    26    18    14   ar
    27     7     1   ar
    28    28    22    1
    29    12    13    1
    30    19    20    1
    31    27    29    1
@<TRIPOS>MOLECULE
*****
 29 31 0 0 0
SMALL
GASTEIGER

@<TRIPOS>ATOM
      1 C          63.7008   90.6562   11.9419 C.ar    1  UNL1        0.1534
      2 C          62.7497   90.6515   10.7821 C.ar    1  UNL1        0.0351
      3 C          61.9095   89.4400   10.5061 C.ar    1  UNL1        0.0722
      4 CL         60.9583   89.4353    9.3462 Cl      1  UNL1       -0.0809
      5 C          62.0204   88.2331   11.3899 C.ar    1  UNL1        0.0577
      6 C          62.9716   88.2378   12.5498 C.ar    1  UNL1        0.0462
      7 C          63.8117   89.4493   12.8258 C.ar    1  UNL1        0.1602
      8 F          64.7629   89.4541   13.9857 F       1  UNL1       -0.2027
      9 O          65.0206   91.8590   10.7967 O.2     1  UNL1       -0.1498
     10 S          64.5411   91.8678   12.2180 S.O2    1  UNL1        0.0772
     11 O          64.0616   91.8766   13.6392 O.2     1  UNL1       -0.1498
     12 N          65.3813   93.0793   12.4940 N.pl3   1  UNL1       -0.1936
     13 H          65.2076   93.9193   12.0107 H       1  UNL1        0.1758
     14 C          66.4862   93.0110   13.5063 C.ar    1  UNL1        0.1786
     15 N          66.7064   93.9715   14.6372 N.ar    1  UNL1       -0.2214
     16 C          67.9211   93.5244   15.3952 C.ar    1  UNL1        0.1079
     17 C          68.4516   92.2875   14.7327 C.ar    1  UNL1        0.0588
     18 S          67.5647   91.9702   13.5653 S.2     1  UNL1       -0.0497
     19 N          61.1802   87.0215   11.1139 N.pl3   1  UNL1       -0.3319
     20 H          60.2910   86.9345   11.5274 H       1  UNL1        0.1468
     21 C          61.6947   85.9426   10.2077 C.3     1  UNL1        0.0885
     22 C          62.5862   84.8667   10.7535 C.3     1  UNL1        0.0379
     23 C          63.4636   84.0782    9.8270 C.3     1  UNL1        0.0047
     24 C          64.3550   83.0023   10.3728 C.3     1  UNL1        0.0199
     25 C          64.3690   82.7150   11.8449 C.3     1  UNL1        0.1007
     26 N          63.4916   83.5035   12.7713 N.3     1  UNL1       -0.1697
     27 O          63.5056   83.2162   14.2435 O.3     1  UNL1       -0.3109
     28 C          62.6002   84.5794   12.2256 C.3     1  UNL1        0.1023
     29 H          64.1313   82.4980   14.4268 H       1  UNL1        0.2366
@<TRIPOS>BOND
     1     9    10    2
     2    10    11    2
     3    10    12    1
     4    12    14    1
     5    14    15   ar
     6    15    16   ar
     7    16    17   ar
     8    17    18   ar
     9    10     1    1
    10     1     2   ar
    11     2     3   ar
    12     3     4    1
    13     3     5   ar
    14     5    19    1
    15    19    21    1
    16    22    21    1
    17    22    23    1
    18    23    24    1
    19    24    25    1
    20    25    26    1
    21    26    27    1
    22    26    28    1
    23     5     6   ar
    24     6     7   ar
    25     7     8    1
    26    18    14   ar
    27     7     1   ar
    28    28    22    1
    29    12    13    1
    30    19    20    1
    31    27    29    1
@<TRIPOS>MOLECULE
*****
 29 31 0 0 0
SMALL
GASTEIGER

@<TRIPOS>ATOM
      1 C          63.7801   86.7820   15.5045 C.ar    1  UNL1        0.1534
      2 C          64.0923   87.5752   14.2703 C.ar    1  UNL1        0.0351
      3 C          63.9728   89.0703   14.2896 C.ar    1  UNL1        0.0722
      4 CL         64.2850   89.8637   13.0553 Cl      1  UNL1       -0.0809
      5 C          63.5410   89.7721   15.5430 C.ar    1  UNL1        0.0577
      6 C          63.2288   88.9789   16.7771 C.ar    1  UNL1        0.0462
      7 C          63.3484   87.4838   16.7579 C.ar    1  UNL1        0.1602
      8 F          63.0362   86.6904   17.9921 F       1  UNL1       -0.2027
      9 O          65.3395   85.4072   15.0825 O.2     1  UNL1       -0.1498
     10 S          63.8997   85.2868   15.4853 S.O2    1  UNL1        0.0772
     11 O          62.4598   85.1665   15.8880 O.2     1  UNL1       -0.1498
     12 N          64.0193   83.7918   15.4660 N.pl3   1  UNL1       -0.1936
     13 H          64.4729   83.3247   16.2045 H       1  UNL1        0.1758
     14 C          63.4477   83.0083   14.3216 C.ar    1  UNL1        0.1786
     15 N          63.0362   81.5663   14.3587 N.ar    1  UNL1       -0.2214
     16 C          62.5215   81.1961   12.9993 C.ar    1  UNL1        0.1079
     17 C          62.6150   82.4093   12.1220 C.ar    1  UNL1        0.0588
     18 S          63.1874   83.5293   12.9393 S.2     1  UNL1       -0.0497
     19 N          63.4215   91.2673   15.5622 N.pl3   1  UNL1       -0.3319
     20 H          62.6594   91.7059   15.1193 H       1  UNL1        0.1468
     21 C          64.4630   92.0941   16.2561 C.3     1  UNL1        0.0885
     22 C          65.8086   92.2910   15.6231 C.3     1  UNL1        0.0379
     23 C          67.0194   92.4975   16.4839 C.3     1  UNL1        0.0047
     24 C          68.3650   92.6944   15.8509 C.3     1  UNL1        0.0199
     25 C          68.4996   92.6847   14.3570 C.3     1  UNL1        0.1007
     26 N          67.2888   92.4781   13.4961 N.3     1  UNL1       -0.1697
     27 O          67.4235   92.4684   12.0022 O.3     1  UNL1       -0.3109
     28 C          65.9433   92.2812   14.1291 C.3     1  UNL1        0.1023
     29 H          68.3524   92.6083   11.7604 H       1  UNL1        0.2366
@<TRIPOS>BOND
     1     9    10    2
     2    10    11    2
     3    10    12    1
     4    12    14    1
     5    14    15   ar
     6    15    16   ar
     7    16    17   ar
     8    17    18   ar
     9    10     1    1
    10     1     2   ar
    11     2     3   ar
    12     3     4    1
    13     3     5   ar
    14     5    19    1
    15    19    21    1
    16    22    21    1
    17    22    23    1
    18    23    24    1
    19    24    25    1
    20    25    26    1
    21    26    27    1
    22    26    28    1
    23     5     6   ar
    24     6     7   ar
    25     7     8    1
    26    18    14   ar
    27     7     1   ar
    28    28    22    1
    29    12    13    1
    30    19    20    1
    31    27    29    1
@<TRIPOS>MOLECULE
*****
 29 31 0 0 0
SMALL
GASTEIGER

@<TRIPOS>ATOM
      1 C          62.7957   89.8888   11.8636 C.ar    1  UNL1        0.1534
      2 C          63.4454   89.7672   13.2101 C.ar    1  UNL1        0.0351
      3 C          64.5483   90.7069   13.5982 C.ar    1  UNL1        0.0722
      4 CL         65.1980   90.5854   14.9448 Cl      1  UNL1       -0.0809
      5 C          65.0014   91.7681   12.6399 C.ar    1  UNL1        0.0577
      6 C          64.3517   91.8897   11.2934 C.ar    1  UNL1        0.0462
      7 C          63.2488   90.9500   10.9053 C.ar    1  UNL1        0.1602
      8 F          62.5991   91.0715    9.5587 F       1  UNL1       -0.2027
      9 O          62.6419   88.2029   10.5852 O.2     1  UNL1       -0.1498
     10 S          61.6928   88.9490   11.4754 S.O2    1  UNL1        0.0772
     11 O          60.7437   89.6951   12.3656 O.2     1  UNL1       -0.1498
     12 N          60.5900   88.0093   11.0872 N.pl3   1  UNL1       -0.1936
     13 H          60.1917   87.4126   11.7613 H       1  UNL1        0.1758
     14 C          60.0941   87.9788    9.6718 C.ar    1  UNL1        0.1786
     15 N          59.9084   89.1681    8.7768 N.ar    1  UNL1       -0.2214
     16 C          59.3963   88.6780    7.4549 C.ar    1  UNL1        0.1079
     17 C          59.2656   87.1857    7.5329 C.ar    1  UNL1        0.0588
     18 S          59.6968   86.7536    8.9031 S.2     1  UNL1       -0.0497
     19 N          66.1043   92.7079   13.0281 N.pl3   1  UNL1       -0.3319
     20 H          66.7948   92.4190   13.6676 H       1  UNL1        0.1468
     21 C          66.1550   94.0876   12.4420 C.3     1  UNL1        0.0885
     22 C          66.6612   94.2908   11.0446 C.3     1  UNL1        0.0379
     23 C          66.4173   95.5926   10.3404 C.3     1  UNL1        0.0047
     24 C          66.9235   95.7957    8.9431 C.3     1  UNL1        0.0199
     25 C          67.6737   94.6971    8.2501 C.3     1  UNL1        0.1007
     26 N          67.9176   93.3953    8.9543 N.3     1  UNL1       -0.1697
     27 O          68.6678   92.2967    8.2612 O.3     1  UNL1       -0.3109
     28 C          67.4114   93.1922   10.3515 C.3     1  UNL1        0.1023
     29 H          68.9218   92.5897    7.3721 H       1  UNL1        0.2366
@<TRIPOS>BOND
     1     9    10    2
     2    10    11    2
     3    10    12    1
     4    12    14    1
     5    14    15   ar
     6    15    16   ar
     7    16    17   ar
     8    17    18   ar
     9    10     1    1
    10     1     2   ar
    11     2     3   ar
    12     3     4    1
    13     3     5   ar
    14     5    19    1
    15    19    21    1
    16    22    21    1
    17    22    23    1
    18    23    24    1
    19    24    25    1
    20    25    26    1
    21    26    27    1
    22    26    28    1
    23     5     6   ar
    24     6     7   ar
    25     7     8    1
    26    18    14   ar
    27     7     1   ar
    28    28    22    1
    29    12    13    1
    30    19    20    1
    31    27    29    1
@<TRIPOS>MOLECULE
*****
 29 31 0 0 0
SMALL
GASTEIGER

@<TRIPOS>ATOM
      1 C          63.7651   86.4311   14.5768 C.ar    1  UNL1        0.1534
      2 C          63.5951   86.9708   13.1876 C.ar    1  UNL1        0.0351
      3 C          63.5031   88.4512   12.9643 C.ar    1  UNL1        0.0722
      4 CL         63.3331   88.9910   11.5751 Cl      1  UNL1       -0.0809
      5 C          63.5811   89.3919   14.1301 C.ar    1  UNL1        0.0577
      6 C          63.7511   88.8521   15.5192 C.ar    1  UNL1        0.0462
      7 C          63.8431   87.3717   15.7426 C.ar    1  UNL1        0.1602
      8 F          64.0131   86.8319   17.1318 F       1  UNL1       -0.2027
      9 O          65.3331   85.0029   14.5384 O.2     1  UNL1       -0.1498
     10 S          63.8571   84.9506   14.8002 S.O2    1  UNL1        0.0772
     11 O          62.3811   84.8983   15.0619 O.2     1  UNL1       -0.1498
     12 N          63.9492   83.4702   15.0236 N.pl3   1  UNL1       -0.1936
     13 H          64.3291   83.1217   15.8622 H       1  UNL1        0.1758
     14 C          63.4623   82.5209   13.9691 C.ar    1  UNL1        0.1786
     15 N          62.7531   81.2217   14.2120 N.ar    1  UNL1       -0.2214
     16 C          62.4517   80.6020   12.8797 C.ar    1  UNL1        0.1079
     17 C          62.9747   81.5182   11.8133 C.ar    1  UNL1        0.0588
     18 S          63.5993   82.7042   12.4867 S.2     1  UNL1       -0.0497
     19 N          63.4891   90.8723   13.9067 N.pl3   1  UNL1       -0.3319
     20 H          62.6891   91.3656   14.1998 H       1  UNL1        0.1468
     21 C          64.6159   91.6012   13.2366 C.3     1  UNL1        0.0885
     22 C          65.8618   91.9261   14.0063 C.3     1  UNL1        0.0379
     23 C          65.7656   92.3757   15.4340 C.3     1  UNL1        0.0047
     24 C          67.0114   92.7006   16.2036 C.3     1  UNL1        0.0199
     25 C          68.3535   92.5758   15.5454 C.3     1  UNL1        0.1007
     26 N          68.4498   92.1261   14.1177 N.3     1  UNL1       -0.1697
     27 O          69.7919   92.0013   13.4595 O.3     1  UNL1       -0.3109
     28 C          67.2039   91.8013   13.3481 C.3     1  UNL1        0.1023
     29 H          70.4858   92.2471   14.0911 H       1  UNL1        0.2366
@<TRIPOS>BOND
     1     9    10    2
     2    10    11    2
     3    10    12    1
     4    12    14    1
     5    14    15   ar
     6    15    16   ar
     7    16    17   ar
     8    17    18   ar
     9    10     1    1
    10     1     2   ar
    11     2     3   ar
    12     3     4    1
    13     3     5   ar
    14     5    19    1
    15    19    21    1
    16    22    21    1
    17    22    23    1
    18    23    24    1
    19    24    25    1
    20    25    26    1
    21    26    27    1
    22    26    28    1
    23     5     6   ar
    24     6     7   ar
    25     7     8    1
    26    18    14   ar
    27     7     1   ar
    28    28    22    1
    29    12    13    1
    30    19    20    1
    31    27    29    1
@<TRIPOS>MOLECULE
*****
 29 31 0 0 0
SMALL
GASTEIGER

@<TRIPOS>ATOM
      1 C          62.7307   87.0221   11.9586 C.ar    1  UNL1        0.1534
      2 C          62.1368   88.1351   11.1473 C.ar    1  UNL1        0.0351
      3 C          62.4236   89.5623   11.5088 C.ar    1  UNL1        0.0722
      4 CL         61.8296   90.6755   10.6975 Cl      1  UNL1       -0.0809
      5 C          63.3043   89.8765   12.6816 C.ar    1  UNL1        0.0577
      6 C          63.8983   88.7635   13.4930 C.ar    1  UNL1        0.0462
      7 C          63.6115   87.3362   13.1314 C.ar    1  UNL1        0.1602
      8 F          64.2055   86.2231   13.9428 F       1  UNL1       -0.2027
      9 O          62.1049   85.3005   13.0283 O.2     1  UNL1       -0.1498
     10 S          62.4439   85.5948   11.5971 S.O2    1  UNL1        0.0772
     11 O          62.7830   85.8891   10.1659 O.2     1  UNL1       -0.1498
     12 N          62.1571   84.1675   11.2357 N.pl3   1  UNL1       -0.1936
     13 H          61.5499   83.9614   10.4886 H       1  UNL1        0.1758
     14 C          62.7955   83.0543   12.0124 C.ar    1  UNL1        0.1786
     15 N          62.0849   81.8776   12.6127 N.ar    1  UNL1       -0.2214
     16 C          63.1067   81.0184   13.2965 C.ar    1  UNL1        0.1079
     17 C          64.4490   81.6641   13.1188 C.ar    1  UNL1        0.0588
     18 S          64.2566   82.9224   12.3252 S.2     1  UNL1       -0.0497
     19 N          63.5911   91.3038   13.0431 N.pl3   1  UNL1       -0.3319
     20 H          62.9437   91.8152   13.5804 H       1  UNL1        0.1468
     21 C          64.8643   91.9520   12.5861 C.3     1  UNL1        0.0885
     22 C          66.0002   92.1353   13.5485 C.3     1  UNL1        0.0379
     23 C          65.7205   92.4662   14.9845 C.3     1  UNL1        0.0047
     24 C          66.8564   92.6495   15.9469 C.3     1  UNL1        0.0199
     25 C          68.2719   92.5017   15.4732 C.3     1  UNL1        0.1007
     26 N          68.5516   92.1708   14.0372 N.3     1  UNL1       -0.1697
     27 O          69.9672   92.0231   13.5635 O.3     1  UNL1       -0.3109
     28 C          67.4157   91.9875   13.0748 C.3     1  UNL1        0.1023
     29 H          70.5737   92.1723   14.3056 H       1  UNL1        0.2366
@<TRIPOS>BOND
     1     9    10    2
     2    10    11    2
     3    10    12    1
     4    12    14    1
     5    14    15   ar
     6    15    16   ar
     7    16    17   ar
     8    17    18   ar
     9    10     1    1
    10     1     2   ar
    11     2     3   ar
    12     3     4    1
    13     3     5   ar
    14     5    19    1
    15    19    21    1
    16    22    21    1
    17    22    23    1
    18    23    24    1
    19    24    25    1
    20    25    26    1
    21    26    27    1
    22    26    28    1
    23     5     6   ar
    24     6     7   ar
    25     7     8    1
    26    18    14   ar
    27     7     1   ar
    28    28    22    1
    29    12    13    1
    30    19    20    1
    31    27    29    1
@<TRIPOS>MOLECULE
*****
 29 31 0 0 0
SMALL
GASTEIGER

@<TRIPOS>ATOM
      1 C          63.4491   85.8888   13.4259 C.ar    1  UNL1        0.1534
      2 C          62.7384   86.0062   12.1102 C.ar    1  UNL1        0.0351
      3 C          62.5800   87.3488   11.4605 C.ar    1  UNL1        0.0722
      4 CL         61.8693   87.4662   10.1447 Cl      1  UNL1       -0.0809
      5 C          63.1321   88.5742   12.1266 C.ar    1  UNL1        0.0577
      6 C          63.8428   88.4569   13.4423 C.ar    1  UNL1        0.0462
      7 C          64.0013   87.1142   14.0919 C.ar    1  UNL1        0.1602
      8 F          64.7120   86.9968   15.4077 F       1  UNL1       -0.2027
      9 O          64.6967   84.2039   13.1026 O.2     1  UNL1       -0.1498
     10 S          63.6076   84.5461   14.0756 S.O2    1  UNL1        0.0772
     11 O          62.5186   84.8884   15.0486 O.2     1  UNL1       -0.1498
     12 N          63.7662   83.2035   14.7253 N.pl3   1  UNL1       -0.1936
     13 H          64.3999   83.0887   15.4698 H       1  UNL1        0.1758
     14 C          62.9590   82.0357   14.2405 C.ar    1  UNL1        0.1786
     15 N          61.5133   81.7763   14.5445 N.ar    1  UNL1       -0.2214
     16 C          61.1167   80.5026   13.8585 C.ar    1  UNL1        0.1079
     17 C          62.3175   79.9748   13.1306 C.ar    1  UNL1        0.0588
     18 S          63.4561   80.9224   13.3667 S.2     1  UNL1       -0.0497
     19 N          62.9736   89.9169   11.4768 N.pl3   1  UNL1       -0.3319
     20 H          62.6435   89.9800   10.5515 H       1  UNL1        0.1468
     21 C          63.3180   91.1632   12.2370 C.3     1  UNL1        0.0885
     22 C          64.6013   91.8856   11.9512 C.3     1  UNL1        0.0379
     23 C          64.8815   92.3990   10.5700 C.3     1  UNL1        0.0047
     24 C          66.1647   93.1212   10.2844 C.3     1  UNL1        0.0199
     25 C          67.1677   93.3301   11.3799 C.3     1  UNL1        0.1007
     26 N          66.8875   92.8167   12.7612 N.3     1  UNL1       -0.1697
     27 O          67.8906   93.0255   13.8568 O.3     1  UNL1       -0.3109
     28 C          65.6043   92.0944   13.0468 C.3     1  UNL1        0.1023
     29 H          68.6571   93.5055   13.5061 H       1  UNL1        0.2366
@<TRIPOS>BOND
     1     9    10    2
     2    10    11    2
     3    10    12    1
     4    12    14    1
     5    14    15   ar
     6    15    16   ar
     7    16    17   ar
     8    17    18   ar
     9    10     1    1
    10     1     2   ar
    11     2     3   ar
    12     3     4    1
    13     3     5   ar
    14     5    19    1
    15    19    21    1
    16    22    21    1
    17    22    23    1
    18    23    24    1
    19    24    25    1
    20    25    26    1
    21    26    27    1
    22    26    28    1
    23     5     6   ar
    24     6     7   ar
    25     7     8    1
    26    18    14   ar
    27     7     1   ar
    28    28    22    1
    29    12    13    1
    30    19    20    1
    31    27    29    1
@<TRIPOS>MOLECULE
*****
 29 31 0 0 0
SMALL
GASTEIGER

@<TRIPOS>ATOM
      1 C          63.1995   85.7847   13.0451 C.ar    1  UNL1        0.1534
      2 C          62.4566   85.7726   11.7421 C.ar    1  UNL1        0.0351
      3 C          62.2583   87.0492   10.9799 C.ar    1  UNL1        0.0722
      4 CL         61.5153   87.0370    9.6768 Cl      1  UNL1       -0.0809
      5 C          62.8029   88.3379   11.5208 C.ar    1  UNL1        0.0577
      6 C          63.5458   88.3501   12.8238 C.ar    1  UNL1        0.0462
      7 C          63.7441   87.0735   13.5860 C.ar    1  UNL1        0.1602
      8 F          64.4870   87.0856   14.8890 F       1  UNL1       -0.2027
      9 O          64.5190   84.1315   12.8849 O.2     1  UNL1       -0.1498
     10 S          63.3978   84.5081   13.8074 S.O2    1  UNL1        0.0772
     11 O          62.2766   84.8846   14.7299 O.2     1  UNL1       -0.1498
     12 N          63.5962   83.2315   14.5695 N.pl3   1  UNL1       -0.1936
     13 H          64.2401   83.1973   15.3134 H       1  UNL1        0.1758
     14 C          62.8134   82.0069   14.1983 C.ar    1  UNL1        0.1786
     15 N          61.3827   81.7329   14.5562 N.ar    1  UNL1       -0.2214
     16 C          61.0090   80.3981   13.9830 C.ar    1  UNL1        0.1079
     17 C          62.2088   79.8471   13.2709 C.ar    1  UNL1        0.0588
     18 S          63.3240   80.8415   13.4039 S.2     1  UNL1       -0.0497
     19 N          62.6045   89.6145   10.7585 N.pl3   1  UNL1       -0.3319
     20 H          62.4190   89.5871    9.7921 H       1  UNL1        0.1468
     21 C          62.6889   90.9330   11.4688 C.3     1  UNL1        0.0885
     22 C          64.0249   91.5715   11.7089 C.3     1  UNL1        0.0379
     23 C          64.6244   91.5621   13.0838 C.3     1  UNL1        0.0047
     24 C          65.9603   92.2005   13.3238 C.3     1  UNL1        0.0199
     25 C          66.6967   92.8483   12.1889 C.3     1  UNL1        0.1007
     26 N          66.0973   92.8577   10.8140 N.3     1  UNL1       -0.1697
     27 O          66.8337   93.5055    9.6791 O.3     1  UNL1       -0.3109
     28 C          64.7613   92.2193   10.5740 C.3     1  UNL1        0.1023
     29 H          67.6737   93.8666   10.0029 H       1  UNL1        0.2366
@<TRIPOS>BOND
     1     9    10    2
     2    10    11    2
     3    10    12    1
     4    12    14    1
     5    14    15   ar
     6    15    16   ar
     7    16    17   ar
     8    17    18   ar
     9    10     1    1
    10     1     2   ar
    11     2     3   ar
    12     3     4    1
    13     3     5   ar
    14     5    19    1
    15    19    21    1
    16    22    21    1
    17    22    23    1
    18    23    24    1
    19    24    25    1
    20    25    26    1
    21    26    27    1
    22    26    28    1
    23     5     6   ar
    24     6     7   ar
    25     7     8    1
    26    18    14   ar
    27     7     1   ar
    28    28    22    1
    29    12    13    1
    30    19    20    1
    31    27    29    1
@<TRIPOS>MOLECULE
*****
 29 31 0 0 0
SMALL
GASTEIGER

@<TRIPOS>ATOM
      1 C          63.3405   86.0222   15.3071 C.ar    1  UNL1        0.1534
      2 C          63.4445   86.6951   13.9706 C.ar    1  UNL1        0.0351
      3 C          63.5633   88.1882   13.8900 C.ar    1  UNL1        0.0722
      4 CL         63.6673   88.8612   12.5534 Cl      1  UNL1       -0.0809
      5 C          63.5780   89.0084   15.1458 C.ar    1  UNL1        0.0577
      6 C          63.4740   88.3355   16.4823 C.ar    1  UNL1        0.0462
      7 C          63.3552   86.8424   16.5630 C.ar    1  UNL1        0.1602
      8 F          63.2512   86.1694   17.8995 F       1  UNL1       -0.2027
      9 O          64.7153   84.4145   15.4652 O.2     1  UNL1       -0.1498
     10 S          63.2217   84.5291   15.3879 S.O2    1  UNL1        0.0772
     11 O          61.7281   84.6436   15.3106 O.2     1  UNL1       -0.1498
     12 N          63.1030   83.0360   15.4686 N.pl3   1  UNL1       -0.1936
     13 H          63.0779   82.5909   16.3464 H       1  UNL1        0.1758
     14 C          63.0226   82.2209   14.2119 C.ar    1  UNL1        0.1786
     15 N          63.7758   82.4828   12.9414 N.ar    1  UNL1       -0.2214
     16 C          63.3935   81.4246   11.9494 C.ar    1  UNL1        0.1079
     17 C          62.4040   80.5087   12.6067 C.ar    1  UNL1        0.0588
     18 S          62.1747   81.0009   14.0051 S.2     1  UNL1       -0.0497
     19 N          63.6968   90.5015   15.0651 N.pl3   1  UNL1       -0.3319
     20 H          62.9137   91.0450   14.8187 H       1  UNL1        0.1468
     21 C          65.0086   91.1666   15.3597 C.3     1  UNL1        0.0885
     22 C          65.8798   91.6387   14.2335 C.3     1  UNL1        0.0379
     23 C          65.2581   92.1419   12.9646 C.3     1  UNL1        0.0047
     24 C          66.1293   92.6140   11.8385 C.3     1  UNL1        0.0199
     25 C          67.6222   92.5829   11.9813 C.3     1  UNL1        0.1007
     26 N          68.2438   92.0796   13.2503 N.3     1  UNL1       -0.1697
     27 O          69.7367   92.0485   13.3931 O.3     1  UNL1       -0.3109
     28 C          67.3726   91.6075   14.3764 C.3     1  UNL1        0.1023
     29 H          70.1463   92.3851   12.5808 H       1  UNL1        0.2366
@<TRIPOS>BOND
     1     9    10    2
     2    10    11    2
     3    10    12    1
     4    12    14    1
     5    14    15   ar
     6    15    16   ar
     7    16    17   ar
     8    17    18   ar
     9    10     1    1
    10     1     2   ar
    11     2     3   ar
    12     3     4    1
    13     3     5   ar
    14     5    19    1
    15    19    21    1
    16    22    21    1
    17    22    23    1
    18    23    24    1
    19    24    25    1
    20    25    26    1
    21    26    27    1
    22    26    28    1
    23     5     6   ar
    24     6     7   ar
    25     7     8    1
    26    18    14   ar
    27     7     1   ar
    28    28    22    1
    29    12    13    1
    30    19    20    1
    31    27    29    1
