@<TRIPOS>MOLECULE
*****
 32 36 0 0 0
SMALL
GASTEIGER

@<TRIPOS>ATOM
      1 N          65.2271   92.3431   12.0283 N.3     1  UNL1       -0.2679
      2 C          66.2898   92.7141   11.0369 C.3     1  UNL1        0.0978
      3 C          67.3224   91.7046   10.6312 C.3     1  UNL1        0.0224
      4 C          68.3851   92.0757    9.6397 C.3     1  UNL1        0.0065
      5 C          68.4153   93.4562    9.0540 C.3     1  UNL1        0.0277
      6 C          67.3827   94.4658    9.4598 C.ar    1  UNL1       -0.0073
      7 C          67.4128   95.8463    8.8741 C.ar    1  UNL1       -0.0015
      8 C          66.3802   96.8559    9.2798 C.ar    1  UNL1        0.0203
      9 C          65.3175   96.4849   10.2712 C.ar    1  UNL1        0.0985
     10 N          65.2874   95.1043   10.8569 N.ar    1  UNL1       -0.2471
     11 C          66.3200   94.0948   10.4512 C.ar    1  UNL1        0.0695
     12 C          65.5449   92.3173   13.4941 C.3     1  UNL1        0.0886
     13 C          63.0748   86.7848   16.7408 C.ar    1  UNL1       -0.0003
     14 C          63.8505   86.3415   15.5359 C.ar    1  UNL1       -0.0003
     15 C          64.4997   87.3593   14.6456 C.ar    1  UNL1       -0.0045
     16 C          64.3731   88.8205   14.9601 C.ar    1  UNL1       -0.0234
     17 C          63.5975   89.2638   16.1650 C.ar    1  UNL1       -0.0103
     18 C          62.9483   88.2460   17.0553 C.ar    1  UNL1       -0.0032
     19 C          63.4709   90.7250   16.4796 C.3     1  UNL1        0.0953
     20 N          64.1200   91.7428   15.5893 N.3     1  UNL1       -0.2934
     21 C          64.8957   91.2994   14.3844 C.3     1  UNL1        0.0748
     22 C          65.0223   89.8383   14.0698 C.3     1  UNL1        0.0432
     23 H          64.7632   92.2774   16.1733 H       1  UNL1        0.1236
     24 C          63.8465   91.9979   11.5540 C.3     1  UNL1        0.0725
     25 C          63.6599   90.9908   10.4582 C.3     1  UNL1        0.0187
     26 C          62.5923   89.9438   10.5757 C.3     1  UNL1        0.0172
     27 C          61.3615   90.0286    9.7223 C.3     1  UNL1        0.0028
     28 C          60.2938   88.9815    9.8398 C.3     1  UNL1        0.0171
     29 C          60.4569   87.8497   10.8106 C.3     1  UNL1        0.0686
     30 N          61.6876   87.7650   11.6639 N.3     1  UNL1       -0.2975
     31 C          62.7553   88.8120   11.5464 C.3     1  UNL1        0.0686
     32 H          62.1293   86.8694   11.4556 H       1  UNL1        0.1232
@<TRIPOS>BOND
     1    13    14   ar
     2    14    15   ar
     3    15    16   ar
     4    16    17   ar
     5    17    18   ar
     6    17    19    1
     7    19    20    1
     8    20    21    1
     9    21    12    1
    10    12     1    1
    11     1    24    1
    12    24    25    1
    13    26    25    1
    14    26    27    1
    15    27    28    1
    16    28    29    1
    17    29    30    1
    18    30    31    1
    19     2     1    1
    20     2     3    1
    21     3     4    1
    22     4     5    1
    23     5     6    1
    24     6     7   ar
    25     7     8   ar
    26     8     9   ar
    27     9    10   ar
    28    10    11   ar
    29    21    22    1
    30    18    13   ar
    31    31    26    1
    32    11     2    1
    33    22    16    1
    34    11     6   ar
    35    20    23    1
    36    30    32    1
@<TRIPOS>MOLECULE
*****
 32 36 0 0 0
SMALL
GASTEIGER

@<TRIPOS>ATOM
      1 N          62.4561   87.3584   11.8724 N.3     1  UNL1       -0.2679
      2 C          62.8108   88.7815   11.5583 C.3     1  UNL1        0.0978
      3 C          62.4203   89.3780   10.2385 C.3     1  UNL1        0.0224
      4 C          62.7751   90.8013    9.9244 C.3     1  UNL1        0.0065
      5 C          63.5202   91.6280   10.9301 C.3     1  UNL1        0.0277
      6 C          63.9106   91.0315   12.2498 C.ar    1  UNL1       -0.0073
      7 C          64.6557   91.8582   13.2555 C.ar    1  UNL1       -0.0015
      8 C          65.0462   91.2617   14.5752 C.ar    1  UNL1        0.0203
      9 C          64.6915   89.8385   14.8893 C.ar    1  UNL1        0.0985
     10 N          63.9464   89.0118   13.8837 N.ar    1  UNL1       -0.2471
     11 C          63.5559   89.6083   12.5639 C.ar    1  UNL1        0.0695
     12 C          63.4488   86.4737   12.5666 C.3     1  UNL1        0.0886
     13 C          62.0785   79.7693   13.2173 C.ar    1  UNL1       -0.0003
     14 C          62.6512   80.0234   11.8544 C.ar    1  UNL1       -0.0003
     15 C          63.0398   81.4151   11.4517 C.ar    1  UNL1       -0.0045
     16 C          62.8557   82.5527   12.4119 C.ar    1  UNL1       -0.0234
     17 C          62.2830   82.2986   13.7747 C.ar    1  UNL1       -0.0103
     18 C          61.8944   80.9069   14.1774 C.ar    1  UNL1       -0.0032
     19 C          62.0989   83.4362   14.7350 C.3     1  UNL1        0.0953
     20 N          62.4875   84.8279   14.3323 N.3     1  UNL1       -0.2934
     21 C          63.0602   85.0820   12.9693 C.3     1  UNL1        0.0748
     22 C          63.2443   83.9444   12.0092 C.3     1  UNL1        0.0432
     23 H          63.1822   85.1467   15.0077 H       1  UNL1        0.1236
     24 C          61.1087   86.8198   11.4924 C.3     1  UNL1        0.0725
     25 C          60.5517   87.0888   10.1259 C.3     1  UNL1        0.0187
     26 C          61.0251   86.2847    8.9514 C.3     1  UNL1        0.0172
     27 C          62.4384   85.7839    8.9060 C.3     1  UNL1        0.0028
     28 C          62.9118   84.9799    7.7315 C.3     1  UNL1        0.0171
     29 C          61.9719   84.6767    6.6024 C.3     1  UNL1        0.0686
     30 N          60.5587   85.1775    6.6478 N.3     1  UNL1       -0.2975
     31 C          60.0853   85.9815    7.8223 C.3     1  UNL1        0.0686
     32 H          59.9540   84.3582    6.5888 H       1  UNL1        0.1232
@<TRIPOS>BOND
     1    13    14   ar
     2    14    15   ar
     3    15    16   ar
     4    16    17   ar
     5    17    18   ar
     6    17    19    1
     7    19    20    1
     8    20    21    1
     9    21    12    1
    10    12     1    1
    11     1    24    1
    12    24    25    1
    13    26    25    1
    14    26    27    1
    15    27    28    1
    16    28    29    1
    17    29    30    1
    18    30    31    1
    19     2     1    1
    20     2     3    1
    21     3     4    1
    22     4     5    1
    23     5     6    1
    24     6     7   ar
    25     7     8   ar
    26     8     9   ar
    27     9    10   ar
    28    10    11   ar
    29    21    22    1
    30    18    13   ar
    31    31    26    1
    32    11     2    1
    33    22    16    1
    34    11     6   ar
    35    20    23    1
    36    30    32    1
@<TRIPOS>MOLECULE
*****
 32 36 0 0 0
SMALL
GASTEIGER

@<TRIPOS>ATOM
      1 N          62.7507   89.8751   12.7959 N.3     1  UNL1       -0.2679
      2 C          63.7179   90.9028   12.2875 C.3     1  UNL1        0.0978
      3 C          63.7774   91.2164   10.8219 C.3     1  UNL1        0.0224
      4 C          64.7447   92.2441   10.3135 C.3     1  UNL1        0.0065
      5 C          65.6523   92.9581   11.2708 C.3     1  UNL1        0.0277
      6 C          65.5927   92.6445   12.7364 C.ar    1  UNL1       -0.0073
      7 C          66.5003   93.3585   13.6937 C.ar    1  UNL1       -0.0015
      8 C          66.4408   93.0449   15.1593 C.ar    1  UNL1        0.0203
      9 C          65.4736   92.0172   15.6677 C.ar    1  UNL1        0.0985
     10 N          64.5660   91.3032   14.7104 N.ar    1  UNL1       -0.2471
     11 C          64.6256   91.6168   13.2448 C.ar    1  UNL1        0.0695
     12 C          61.3803   89.7727   12.1947 C.3     1  UNL1        0.0886
     13 C          61.4690   85.0963    7.1575 C.ar    1  UNL1       -0.0003
     14 C          62.7975   85.0931    7.8539 C.ar    1  UNL1       -0.0003
     15 C          63.0454   86.0277    9.0006 C.ar    1  UNL1       -0.0045
     16 C          61.9649   86.9656    9.4509 C.ar    1  UNL1       -0.0234
     17 C          60.6364   86.9688    8.7545 C.ar    1  UNL1       -0.0103
     18 C          60.3885   86.0342    7.6077 C.ar    1  UNL1       -0.0032
     19 C          59.5558   87.9067    9.2047 C.3     1  UNL1        0.0953
     20 N          59.8037   88.8414   10.3515 N.3     1  UNL1       -0.2934
     21 C          61.1323   88.8381   11.0479 C.3     1  UNL1        0.0748
     22 C          62.2128   87.9002   10.5976 C.3     1  UNL1        0.0432
     23 H          59.0997   88.6323   11.0593 H       1  UNL1        0.1236
     24 C          63.1539   88.9499   13.9056 C.3     1  UNL1        0.0725
     25 C          64.2495   87.9490   13.6867 C.3     1  UNL1        0.0187
     26 C          64.0151   86.5004   13.9979 C.3     1  UNL1        0.0172
     27 C          63.3497   85.6143   12.9869 C.3     1  UNL1        0.0028
     28 C          63.1153   84.1658   13.2981 C.3     1  UNL1        0.0171
     29 C          63.5464   83.6034   14.6202 C.3     1  UNL1        0.0686
     30 N          64.2119   84.4895   15.6311 N.3     1  UNL1       -0.2975
     31 C          64.4462   85.9380   15.3199 C.3     1  UNL1        0.0686
     32 H          65.1249   84.0789   15.8269 H       1  UNL1        0.1232
@<TRIPOS>BOND
     1    13    14   ar
     2    14    15   ar
     3    15    16   ar
     4    16    17   ar
     5    17    18   ar
     6    17    19    1
     7    19    20    1
     8    20    21    1
     9    21    12    1
    10    12     1    1
    11     1    24    1
    12    24    25    1
    13    26    25    1
    14    26    27    1
    15    27    28    1
    16    28    29    1
    17    29    30    1
    18    30    31    1
    19     2     1    1
    20     2     3    1
    21     3     4    1
    22     4     5    1
    23     5     6    1
    24     6     7   ar
    25     7     8   ar
    26     8     9   ar
    27     9    10   ar
    28    10    11   ar
    29    21    22    1
    30    18    13   ar
    31    31    26    1
    32    11     2    1
    33    22    16    1
    34    11     6   ar
    35    20    23    1
    36    30    32    1
@<TRIPOS>MOLECULE
*****
 32 36 0 0 0
SMALL
GASTEIGER

@<TRIPOS>ATOM
      1 N          63.5432   88.7711   13.6007 N.3     1  UNL1       -0.2679
      2 C          63.0167   89.1377   12.2449 C.3     1  UNL1        0.0978
      3 C          63.1133   90.5541   11.7606 C.3     1  UNL1        0.0224
      4 C          62.5868   90.9207   10.4047 C.3     1  UNL1        0.0065
      5 C          61.9638   89.8709    9.5331 C.3     1  UNL1        0.0277
      6 C          61.8673   88.4545   10.0173 C.ar    1  UNL1       -0.0073
      7 C          61.2443   87.4047    9.1457 C.ar    1  UNL1       -0.0015
      8 C          61.1478   85.9883    9.6299 C.ar    1  UNL1        0.0203
      9 C          61.6742   85.6217   10.9858 C.ar    1  UNL1        0.0985
     10 N          62.2972   86.6715   11.8574 N.ar    1  UNL1       -0.2471
     11 C          62.3937   88.0879   11.3732 C.ar    1  UNL1        0.0695
     12 C          63.3408   89.7008   14.7604 C.3     1  UNL1        0.0886
     13 C          68.9709   93.5632   15.5569 C.ar    1  UNL1       -0.0003
     14 C          69.1801   92.6211   14.4086 C.ar    1  UNL1       -0.0003
     15 C          68.0960   91.6602   14.0197 C.ar    1  UNL1       -0.0045
     16 C          66.8025   91.6414   14.7790 C.ar    1  UNL1       -0.0234
     17 C          66.5933   92.5835   15.9273 C.ar    1  UNL1       -0.0103
     18 C          67.6774   93.5444   16.3162 C.ar    1  UNL1       -0.0032
     19 C          65.2998   92.5647   16.6867 C.3     1  UNL1        0.0953
     20 N          64.2156   91.6038   16.2977 N.3     1  UNL1       -0.2934
     21 C          64.4250   90.6617   15.1494 C.3     1  UNL1        0.0748
     22 C          65.7184   90.6805   14.3900 C.3     1  UNL1        0.0432
     23 H          63.3928   92.1633   16.0734 H       1  UNL1        0.1236
     24 C          64.2720   87.4748   13.7970 C.3     1  UNL1        0.0725
     25 C          63.9177   86.5822   14.9493 C.3     1  UNL1        0.0187
     26 C          63.7156   85.1129   14.7253 C.3     1  UNL1        0.0172
     27 C          64.4253   84.4213   13.5991 C.3     1  UNL1        0.0028
     28 C          64.2231   82.9520   13.3751 C.3     1  UNL1        0.0171
     29 C          63.3113   82.1742   14.2773 C.3     1  UNL1        0.0686
     30 N          62.6017   82.8658   15.4034 N.3     1  UNL1       -0.2975
     31 C          62.8039   84.3352   15.6274 C.3     1  UNL1        0.0686
     32 H          62.8848   82.3953   16.2630 H       1  UNL1        0.1232
@<TRIPOS>BOND
     1    13    14   ar
     2    14    15   ar
     3    15    16   ar
     4    16    17   ar
     5    17    18   ar
     6    17    19    1
     7    19    20    1
     8    20    21    1
     9    21    12    1
    10    12     1    1
    11     1    24    1
    12    24    25    1
    13    26    25    1
    14    26    27    1
    15    27    28    1
    16    28    29    1
    17    29    30    1
    18    30    31    1
    19     2     1    1
    20     2     3    1
    21     3     4    1
    22     4     5    1
    23     5     6    1
    24     6     7   ar
    25     7     8   ar
    26     8     9   ar
    27     9    10   ar
    28    10    11   ar
    29    21    22    1
    30    18    13   ar
    31    31    26    1
    32    11     2    1
    33    22    16    1
    34    11     6   ar
    35    20    23    1
    36    30    32    1
@<TRIPOS>MOLECULE
*****
 32 36 0 0 0
SMALL
GASTEIGER

@<TRIPOS>ATOM
      1 N          63.3819   90.4929   11.6060 N.3     1  UNL1       -0.2679
      2 C          64.3885   91.6044   11.6395 C.3     1  UNL1        0.0978
      3 C          64.7645   92.3141   10.3726 C.3     1  UNL1        0.0224
      4 C          65.7712   93.4257   10.4061 C.3     1  UNL1        0.0065
      5 C          66.4017   93.8276   11.7064 C.3     1  UNL1        0.0277
      6 C          66.0257   93.1179   12.9733 C.ar    1  UNL1       -0.0073
      7 C          66.6562   93.5197   14.2736 C.ar    1  UNL1       -0.0015
      8 C          66.2802   92.8100   15.5405 C.ar    1  UNL1        0.0203
      9 C          65.2736   91.6985   15.5070 C.ar    1  UNL1        0.0985
     10 N          64.6430   91.2966   14.2067 N.ar    1  UNL1       -0.2471
     11 C          65.0191   92.0063   12.9398 C.ar    1  UNL1        0.0695
     12 C          62.9291   89.8523   12.8846 C.3     1  UNL1        0.0886
     13 C          63.9675   83.0631   13.1651 C.ar    1  UNL1       -0.0003
     14 C          63.1478   83.3847   11.9508 C.ar    1  UNL1       -0.0003
     15 C          62.7761   84.8068   11.6518 C.ar    1  UNL1       -0.0045
     16 C          63.2243   85.9074   12.5672 C.ar    1  UNL1       -0.0234
     17 C          64.0440   85.5858   13.7815 C.ar    1  UNL1       -0.0103
     18 C          64.4156   84.1637   14.0804 C.ar    1  UNL1       -0.0032
     19 C          64.4922   86.6864   14.6969 C.3     1  UNL1        0.0953
     20 N          64.1205   88.1086   14.3979 N.3     1  UNL1       -0.2934
     21 C          63.3007   88.4301   13.1835 C.3     1  UNL1        0.0748
     22 C          62.8526   87.3296   12.2682 C.3     1  UNL1        0.0432
     23 H          64.9935   88.6288   14.3101 H       1  UNL1        0.1236
     24 C          62.8280   90.0218   10.2940 C.3     1  UNL1        0.0725
     25 C          61.3442   89.9752   10.0797 C.3     1  UNL1        0.0187
     26 C          60.7358   88.8572    9.2860 C.3     1  UNL1        0.0172
     27 C          61.1336   87.4377    9.5632 C.3     1  UNL1        0.0028
     28 C          60.5252   86.3197    8.7694 C.3     1  UNL1        0.0171
     29 C          59.5190   86.6212    7.6986 C.3     1  UNL1        0.0686
     30 N          59.1212   88.0407    7.4215 N.3     1  UNL1       -0.2975
     31 C          59.7296   89.1587    8.2152 C.3     1  UNL1        0.0686
     32 H          58.1122   88.0962    7.5603 H       1  UNL1        0.1232
@<TRIPOS>BOND
     1    13    14   ar
     2    14    15   ar
     3    15    16   ar
     4    16    17   ar
     5    17    18   ar
     6    17    19    1
     7    19    20    1
     8    20    21    1
     9    21    12    1
    10    12     1    1
    11     1    24    1
    12    24    25    1
    13    26    25    1
    14    26    27    1
    15    27    28    1
    16    28    29    1
    17    29    30    1
    18    30    31    1
    19     2     1    1
    20     2     3    1
    21     3     4    1
    22     4     5    1
    23     5     6    1
    24     6     7   ar
    25     7     8   ar
    26     8     9   ar
    27     9    10   ar
    28    10    11   ar
    29    21    22    1
    30    18    13   ar
    31    31    26    1
    32    11     2    1
    33    22    16    1
    34    11     6   ar
    35    20    23    1
    36    30    32    1
@<TRIPOS>MOLECULE
*****
 32 36 0 0 0
SMALL
GASTEIGER

@<TRIPOS>ATOM
      1 N          63.7462   89.9278   13.5374 N.3     1  UNL1       -0.2679
      2 C          64.6637   91.0652   13.8757 C.3     1  UNL1        0.0978
      3 C          65.1405   91.2503   15.2858 C.3     1  UNL1        0.0224
      4 C          66.0581   92.3877   15.6240 C.3     1  UNL1        0.0065
      5 C          66.4989   93.3400   14.5522 C.3     1  UNL1        0.0277
      6 C          66.0221   93.1549   13.1421 C.ar    1  UNL1       -0.0073
      7 C          66.4628   94.1072   12.0703 C.ar    1  UNL1       -0.0015
      8 C          65.9860   93.9221   10.6601 C.ar    1  UNL1        0.0203
      9 C          65.0685   92.7847   10.3219 C.ar    1  UNL1        0.0985
     10 N          64.6277   91.8324   11.3937 N.ar    1  UNL1       -0.2471
     11 C          65.1045   92.0175   12.8038 C.ar    1  UNL1        0.0695
     12 C          62.2922   90.1891   13.2771 C.3     1  UNL1        0.0886
     13 C          60.1470   86.8528    7.6630 C.ar    1  UNL1       -0.0003
     14 C          61.1929   86.0291    8.3541 C.ar    1  UNL1       -0.0003
     15 C          61.8311   86.5316    9.6151 C.ar    1  UNL1       -0.0045
     16 C          61.4234   87.8578   10.1851 C.ar    1  UNL1       -0.0234
     17 C          60.3776   88.6816    9.4940 C.ar    1  UNL1       -0.0103
     18 C          59.7393   88.1790    8.2330 C.ar    1  UNL1       -0.0032
     19 C          59.9698   90.0078   10.0640 C.3     1  UNL1        0.0953
     20 N          60.6080   90.5104   11.3250 N.3     1  UNL1       -0.2934
     21 C          61.6540   89.6866   12.0161 C.3     1  UNL1        0.0748
     22 C          62.0617   88.3604   11.4461 C.3     1  UNL1        0.0432
     23 H          59.8556   90.6558   11.9981 H       1  UNL1        0.1236
     24 C          64.2826   88.5292   13.4595 C.3     1  UNL1        0.0725
     25 C          64.2564   87.6472   14.6725 C.3     1  UNL1        0.0187
     26 C          64.0998   86.1634   14.5177 C.3     1  UNL1        0.0172
     27 C          63.5852   85.5940   13.2289 C.3     1  UNL1        0.0028
     28 C          63.4286   84.1102   13.0741 C.3     1  UNL1        0.0171
     29 C          63.7866   83.1959   14.2082 C.3     1  UNL1        0.0686
     30 N          64.3011   83.7654   15.4969 N.3     1  UNL1       -0.2975
     31 C          64.4577   85.2492   15.6517 C.3     1  UNL1        0.0686
     32 H          65.2212   83.3543   15.6540 H       1  UNL1        0.1232
@<TRIPOS>BOND
     1    13    14   ar
     2    14    15   ar
     3    15    16   ar
     4    16    17   ar
     5    17    18   ar
     6    17    19    1
     7    19    20    1
     8    20    21    1
     9    21    12    1
    10    12     1    1
    11     1    24    1
    12    24    25    1
    13    26    25    1
    14    26    27    1
    15    27    28    1
    16    28    29    1
    17    29    30    1
    18    30    31    1
    19     2     1    1
    20     2     3    1
    21     3     4    1
    22     4     5    1
    23     5     6    1
    24     6     7   ar
    25     7     8   ar
    26     8     9   ar
    27     9    10   ar
    28    10    11   ar
    29    21    22    1
    30    18    13   ar
    31    31    26    1
    32    11     2    1
    33    22    16    1
    34    11     6   ar
    35    20    23    1
    36    30    32    1
@<TRIPOS>MOLECULE
*****
 32 36 0 0 0
SMALL
GASTEIGER

@<TRIPOS>ATOM
      1 N          63.1282   85.0590   12.7643 N.3     1  UNL1       -0.2679
      2 C          63.3052   83.7914   11.9822 C.3     1  UNL1        0.0978
      3 C          63.9755   83.8253   10.6407 C.3     1  UNL1        0.0224
      4 C          64.1526   82.5577    9.8585 C.3     1  UNL1        0.0065
      5 C          63.6594   81.2562   10.4178 C.3     1  UNL1        0.0277
      6 C          62.9892   81.2223   11.7593 C.ar    1  UNL1       -0.0073
      7 C          62.4960   79.9208   12.3186 C.ar    1  UNL1       -0.0015
      8 C          61.8257   79.8869   13.6601 C.ar    1  UNL1        0.0203
      9 C          61.6486   81.1545   14.4423 C.ar    1  UNL1        0.0985
     10 N          62.1418   82.4559   13.8829 N.ar    1  UNL1       -0.2471
     11 C          62.8121   82.4898   12.5415 C.ar    1  UNL1        0.0695
     12 C          63.9593   85.3075   13.9881 C.3     1  UNL1        0.0886
     13 C          64.1403   91.7962   16.2495 C.ar    1  UNL1       -0.0003
     14 C          64.8148   91.7235   14.9117 C.ar    1  UNL1       -0.0003
     15 C          64.9135   90.4112   14.1918 C.ar    1  UNL1       -0.0045
     16 C          64.3377   89.1717   14.8098 C.ar    1  UNL1       -0.0234
     17 C          63.6632   89.2444   16.1476 C.ar    1  UNL1       -0.0103
     18 C          63.5645   90.5567   16.8674 C.ar    1  UNL1       -0.0032
     19 C          63.0874   88.0048   16.7656 C.3     1  UNL1        0.0953
     20 N          63.1861   86.6925   16.0458 N.3     1  UNL1       -0.2934
     21 C          63.8606   86.6198   14.7079 C.3     1  UNL1        0.0748
     22 C          64.4364   87.8594   14.0900 C.3     1  UNL1        0.0432
     23 H          62.2321   86.3569   15.9132 H       1  UNL1        0.1236
     24 C          62.1199   86.0781   12.3228 C.3     1  UNL1        0.0725
     25 C          62.4665   87.0553   11.2389 C.3     1  UNL1        0.0187
     26 C          61.5150   87.2826   10.1018 C.3     1  UNL1        0.0172
     27 C          61.0058   86.1177    9.3057 C.3     1  UNL1        0.0028
     28 C          60.0543   86.3450    8.1685 C.3     1  UNL1        0.0171
     29 C          59.6121   87.7372    7.8275 C.3     1  UNL1        0.0686
     30 N          60.1214   88.9020    8.6236 N.3     1  UNL1       -0.2975
     31 C          61.0728   88.6747    9.7607 C.3     1  UNL1        0.0686
     32 H          59.3043   89.3724    9.0128 H       1  UNL1        0.1232
@<TRIPOS>BOND
     1    13    14   ar
     2    14    15   ar
     3    15    16   ar
     4    16    17   ar
     5    17    18   ar
     6    17    19    1
     7    19    20    1
     8    20    21    1
     9    21    12    1
    10    12     1    1
    11     1    24    1
    12    24    25    1
    13    26    25    1
    14    26    27    1
    15    27    28    1
    16    28    29    1
    17    29    30    1
    18    30    31    1
    19     2     1    1
    20     2     3    1
    21     3     4    1
    22     4     5    1
    23     5     6    1
    24     6     7   ar
    25     7     8   ar
    26     8     9   ar
    27     9    10   ar
    28    10    11   ar
    29    21    22    1
    30    18    13   ar
    31    31    26    1
    32    11     2    1
    33    22    16    1
    34    11     6   ar
    35    20    23    1
    36    30    32    1
@<TRIPOS>MOLECULE
*****
 32 36 0 0 0
SMALL
GASTEIGER

@<TRIPOS>ATOM
      1 N          62.4043   89.2994   12.2919 N.3     1  UNL1       -0.2679
      2 C          63.2838   90.0730   13.2289 C.3     1  UNL1        0.0978
      3 C          63.2521   89.7816   14.6999 C.3     1  UNL1        0.0224
      4 C          64.1317   90.5553   15.6369 C.3     1  UNL1        0.0065
      5 C          65.0429   91.6203   15.1028 C.3     1  UNL1        0.0277
      6 C          65.0746   91.9118   13.6317 C.ar    1  UNL1       -0.0073
      7 C          65.9858   92.9768   13.0976 C.ar    1  UNL1       -0.0015
      8 C          66.0175   93.2683   11.6266 C.ar    1  UNL1        0.0203
      9 C          65.1380   92.4947   10.6896 C.ar    1  UNL1        0.0985
     10 N          64.2268   91.4296   11.2237 N.ar    1  UNL1       -0.2471
     11 C          64.1951   91.1382   12.6948 C.ar    1  UNL1        0.0695
     12 C          62.9445   88.0958   11.5779 C.3     1  UNL1        0.0886
     13 C          63.2120   81.6252   13.8823 C.ar    1  UNL1       -0.0003
     14 C          62.6256   81.6309   12.5016 C.ar    1  UNL1       -0.0003
     15 C          62.4549   82.9262   11.7647 C.ar    1  UNL1       -0.0045
     16 C          62.8704   84.2158   12.4083 C.ar    1  UNL1       -0.0234
     17 C          63.4568   84.2101   13.7889 C.ar    1  UNL1       -0.0103
     18 C          63.6275   82.9148   14.5259 C.ar    1  UNL1       -0.0032
     19 C          63.8724   85.4997   14.4326 C.3     1  UNL1        0.0953
     20 N          63.7016   86.7949   13.6956 N.3     1  UNL1       -0.2934
     21 C          63.1153   86.8006   12.3149 C.3     1  UNL1        0.0748
     22 C          62.6997   85.5110   11.6713 C.3     1  UNL1        0.0432
     23 H          64.6273   87.2173   13.6241 H       1  UNL1        0.1236
     24 C          60.9847   89.7293   12.0688 C.3     1  UNL1        0.0725
     25 C          60.5463   90.1945   10.7119 C.3     1  UNL1        0.0187
     26 C          60.1214   89.1949    9.6774 C.3     1  UNL1        0.0172
     27 C          59.8115   89.6464    8.2809 C.3     1  UNL1        0.0028
     28 C          59.3867   88.6468    7.2464 C.3     1  UNL1        0.0171
     29 C          59.2717   87.1956    7.6084 C.3     1  UNL1        0.0686
     30 N          59.5816   86.7441    9.0048 N.3     1  UNL1       -0.2975
     31 C          60.0065   87.7438   10.0393 C.3     1  UNL1        0.0686
     32 H          60.3327   86.0579    8.9325 H       1  UNL1        0.1232
@<TRIPOS>BOND
     1    13    14   ar
     2    14    15   ar
     3    15    16   ar
     4    16    17   ar
     5    17    18   ar
     6    17    19    1
     7    19    20    1
     8    20    21    1
     9    21    12    1
    10    12     1    1
    11     1    24    1
    12    24    25    1
    13    26    25    1
    14    26    27    1
    15    27    28    1
    16    28    29    1
    17    29    30    1
    18    30    31    1
    19     2     1    1
    20     2     3    1
    21     3     4    1
    22     4     5    1
    23     5     6    1
    24     6     7   ar
    25     7     8   ar
    26     8     9   ar
    27     9    10   ar
    28    10    11   ar
    29    21    22    1
    30    18    13   ar
    31    31    26    1
    32    11     2    1
    33    22    16    1
    34    11     6   ar
    35    20    23    1
    36    30    32    1
@<TRIPOS>MOLECULE
*****
 32 36 0 0 0
SMALL
GASTEIGER

@<TRIPOS>ATOM
      1 N          63.0310   88.5446   12.4103 N.3     1  UNL1       -0.2679
      2 C          63.5483   87.4074   13.2403 C.3     1  UNL1        0.0978
      3 C          64.3028   87.6855   14.5065 C.3     1  UNL1        0.0224
      4 C          64.8201   86.5481   15.3366 C.3     1  UNL1        0.0065
      5 C          64.5828   85.1327   14.9004 C.3     1  UNL1        0.0277
      6 C          63.8283   84.8546   13.6341 C.ar    1  UNL1       -0.0073
      7 C          63.5910   83.4392   13.1979 C.ar    1  UNL1       -0.0015
      8 C          62.8364   83.1611   11.9317 C.ar    1  UNL1        0.0203
      9 C          62.3192   84.2984   11.1017 C.ar    1  UNL1        0.0985
     10 N          62.5565   85.7138   11.5379 N.ar    1  UNL1       -0.2471
     11 C          63.3110   85.9919   12.8041 C.ar    1  UNL1        0.0695
     12 C          62.6705   89.8463   13.0630 C.3     1  UNL1        0.0886
     13 C          68.0982   93.0493   15.8071 C.ar    1  UNL1       -0.0003
     14 C          68.4455   92.5953   14.4204 C.ar    1  UNL1       -0.0003
     15 C          67.4294   91.8639   13.5942 C.ar    1  UNL1       -0.0045
     16 C          66.0661   91.5865   14.1548 C.ar    1  UNL1       -0.0234
     17 C          65.7188   92.0405   15.5416 C.ar    1  UNL1       -0.0103
     18 C          66.7349   92.7719   16.3677 C.ar    1  UNL1       -0.0032
     19 C          64.3554   91.7631   16.1022 C.3     1  UNL1        0.0953
     20 N          63.3393   91.0317   15.2761 N.3     1  UNL1       -0.2934
     21 C          63.6866   90.5777   13.8892 C.3     1  UNL1        0.0748
     22 C          65.0500   90.8551   13.3286 C.3     1  UNL1        0.0432
     23 H          62.5309   91.6477   15.1904 H       1  UNL1        0.1236
     24 C          62.8742   88.3804   10.9276 C.3     1  UNL1        0.0725
     25 C          61.7977   89.1296   10.1997 C.3     1  UNL1        0.0187
     26 C          60.8948   88.4063    9.2449 C.3     1  UNL1        0.0172
     27 C          60.9966   86.9169    9.0988 C.3     1  UNL1        0.0028
     28 C          60.0937   86.1936    8.1439 C.3     1  UNL1        0.0171
     29 C          59.0891   86.9598    7.3353 C.3     1  UNL1        0.0686
     30 N          58.9874   88.4491    7.4814 N.3     1  UNL1       -0.2975
     31 C          59.8903   89.1724    8.4363 C.3     1  UNL1        0.0686
     32 H          58.0304   88.6520    7.7701 H       1  UNL1        0.1232
@<TRIPOS>BOND
     1    13    14   ar
     2    14    15   ar
     3    15    16   ar
     4    16    17   ar
     5    17    18   ar
     6    17    19    1
     7    19    20    1
     8    20    21    1
     9    21    12    1
    10    12     1    1
    11     1    24    1
    12    24    25    1
    13    26    25    1
    14    26    27    1
    15    27    28    1
    16    28    29    1
    17    29    30    1
    18    30    31    1
    19     2     1    1
    20     2     3    1
    21     3     4    1
    22     4     5    1
    23     5     6    1
    24     6     7   ar
    25     7     8   ar
    26     8     9   ar
    27     9    10   ar
    28    10    11   ar
    29    21    22    1
    30    18    13   ar
    31    31    26    1
    32    11     2    1
    33    22    16    1
    34    11     6   ar
    35    20    23    1
    36    30    32    1
