@<TRIPOS>MOLECULE
*****
 24 26 0 0 0
SMALL
GASTEIGER

@<TRIPOS>ATOM
      1 C          64.6549   91.8896   15.1900 C.2     1  UNL1        0.0412
      2 C          64.2468   90.4754   15.4789 C.2     1  UNL1       -0.0326
      3 C          64.5767   89.3853   14.5028 C.3     1  UNL1        0.0442
      4 C          64.1686   87.9711   14.7918 C.3     1  UNL1        0.0981
      5 N          63.4305   87.6470   16.0568 N.am    1  UNL1       -0.2754
      6 C          63.0224   86.2329   16.3458 C.2     1  UNL1        0.2490
      7 O          62.2844   85.9089   17.6108 O.2     1  UNL1       -0.2699
      8 C          63.1006   88.7372   17.0329 C.3     1  UNL1        0.0981
      9 C          63.5087   90.1514   16.7439 C.3     1  UNL1        0.0442
     10 C          63.3524   85.1427   15.3697 C.ar    1  UNL1        0.0536
     11 C          62.3161   84.1199   15.0092 C.ar    1  UNL1        0.0045
     12 C          62.6461   83.0297   14.0332 C.ar    1  UNL1        0.0001
     13 C          64.0123   82.9624   13.4176 C.ar    1  UNL1        0.0000
     14 C          65.0485   83.9852   13.7781 C.ar    1  UNL1        0.0001
     15 C          64.7186   85.0753   14.7542 C.ar    1  UNL1        0.0045
     16 C          66.1310   92.5377   12.6599 C.1     1  UNL1       -0.0405
     17 C          65.3930   92.2137   13.9249 C.1     1  UNL1       -0.0583
     18 C          67.3784   95.9209    8.9185 C.3     1  UNL1        0.0521
     19 C          67.4928   94.5534    9.5242 C.ar    1  UNL1        0.0600
     20 C          68.3451   93.5100    8.8649 C.ar    1  UNL1        0.0148
     21 C          68.4595   92.1425    9.4706 C.ar    1  UNL1        0.0034
     22 C          67.7214   91.8184   10.7356 C.ar    1  UNL1        0.0276
     23 C          66.8691   92.8618   11.3948 C.ar    1  UNL1        0.1224
     24 N          66.7547   94.2293   10.7892 N.ar    1  UNL1       -0.2414
@<TRIPOS>BOND
     1    18    19    1
     2    19    20   ar
     3    20    21   ar
     4    21    22   ar
     5    22    23   ar
     6    23    16    1
     7    16    17    3
     8    17     1    1
     9     1     2    2
    10     2     3    1
    11     3     4    1
    12     4     5    1
    13     5     6   am
    14     6     7    2
    15     6    10    1
    16    10    11   ar
    17    11    12   ar
    18    12    13   ar
    19    13    14   ar
    20    14    15   ar
    21     5     8    1
    22     8     9    1
    23    23    24   ar
    24    24    19   ar
    25     9     2    1
    26    15    10   ar
@<TRIPOS>MOLECULE
*****
 24 26 0 0 0
SMALL
GASTEIGER

@<TRIPOS>ATOM
      1 C          63.4003   89.1557   12.9685 C.2     1  UNL1        0.0412
      2 C          64.1071   90.4627   12.7630 C.2     1  UNL1       -0.0326
      3 C          64.1465   91.0878   11.4000 C.3     1  UNL1        0.0442
      4 C          64.8533   92.3948   11.1945 C.3     1  UNL1        0.0981
      5 N          65.5207   93.0766   12.3520 N.am    1  UNL1       -0.2754
      6 C          66.2275   94.3836   12.1465 C.2     1  UNL1        0.2490
      7 O          66.8949   95.0654   13.3040 O.2     1  UNL1       -0.2699
      8 C          65.4813   92.4515   13.7149 C.3     1  UNL1        0.0981
      9 C          64.7745   91.1444   13.9204 C.3     1  UNL1        0.0442
     10 C          66.2669   95.0088   10.7836 C.ar    1  UNL1        0.0536
     11 C          65.3770   96.1740   10.4669 C.ar    1  UNL1        0.0045
     12 C          65.4164   96.7992    9.1040 C.ar    1  UNL1        0.0001
     13 C          66.3457   96.2591    8.0577 C.ar    1  UNL1        0.0000
     14 C          67.2355   95.0939    8.3743 C.ar    1  UNL1        0.0001
     15 C          67.1961   94.4687    9.7373 C.ar    1  UNL1        0.0045
     16 C          62.0654   87.7920   10.6536 C.1     1  UNL1       -0.0405
     17 C          62.7329   88.4739   11.8110 C.1     1  UNL1       -0.0583
     18 C          62.3069   84.5880    6.5700 C.3     1  UNL1        0.0521
     19 C          61.5188   85.5082    7.4543 C.ar    1  UNL1        0.0600
     20 C          60.0633   85.7465    7.1813 C.ar    1  UNL1        0.0148
     21 C          59.2751   86.6667    8.0656 C.ar    1  UNL1        0.0034
     22 C          59.9425   87.3485    9.2230 C.ar    1  UNL1        0.0276
     23 C          61.3980   87.1102    9.4961 C.ar    1  UNL1        0.1224
     24 N          62.1861   86.1900    8.6118 N.ar    1  UNL1       -0.2414
@<TRIPOS>BOND
     1    18    19    1
     2    19    20   ar
     3    20    21   ar
     4    21    22   ar
     5    22    23   ar
     6    23    16    1
     7    16    17    3
     8    17     1    1
     9     1     2    2
    10     2     3    1
    11     3     4    1
    12     4     5    1
    13     5     6   am
    14     6     7    2
    15     6    10    1
    16    10    11   ar
    17    11    12   ar
    18    12    13   ar
    19    13    14   ar
    20    14    15   ar
    21     5     8    1
    22     8     9    1
    23    23    24   ar
    24    24    19   ar
    25     9     2    1
    26    15    10   ar
@<TRIPOS>MOLECULE
*****
 24 26 0 0 0
SMALL
GASTEIGER

@<TRIPOS>ATOM
      1 C          64.4817   91.1254   15.3921 C.2     1  UNL1        0.0412
      2 C          64.1380   89.6669   15.3249 C.2     1  UNL1       -0.0326
      3 C          64.4258   88.8852   14.0775 C.3     1  UNL1        0.0442
      4 C          64.0821   87.4267   14.0103 C.3     1  UNL1        0.0981
      5 N          63.4505   86.7498   15.1906 N.am    1  UNL1       -0.2754
      6 C          63.1068   85.2913   15.1234 C.2     1  UNL1        0.2490
      7 O          62.4753   84.6145   16.3036 O.2     1  UNL1       -0.2699
      8 C          63.1627   87.5315   16.4380 C.3     1  UNL1        0.0981
      9 C          63.5064   88.9901   16.5051 C.3     1  UNL1        0.0442
     10 C          63.3946   84.5096   13.8759 C.ar    1  UNL1        0.0536
     11 C          62.7321   84.8875   12.5844 C.ar    1  UNL1        0.0045
     12 C          63.0199   84.1058   11.3369 C.ar    1  UNL1        0.0001
     13 C          63.9703   82.9462   11.3811 C.ar    1  UNL1        0.0000
     14 C          64.6328   82.5682   12.6726 C.ar    1  UNL1        0.0001
     15 C          64.3450   83.3499   13.9201 C.ar    1  UNL1        0.0045
     16 C          65.7448   92.4792   13.0316 C.1     1  UNL1       -0.0405
     17 C          65.1133   91.8023   14.2118 C.1     1  UNL1       -0.0583
     18 C          68.7580   92.2677    8.8036 C.3     1  UNL1        0.0521
     19 C          67.8830   93.0503    9.7373 C.ar    1  UNL1        0.0600
     20 C          67.6395   94.5097    9.4908 C.ar    1  UNL1        0.0148
     21 C          66.7645   95.2923   10.4246 C.ar    1  UNL1        0.0034
     22 C          66.1329   94.6155   11.6048 C.ar    1  UNL1        0.0276
     23 C          66.3764   93.1561   11.8513 C.ar    1  UNL1        0.1224
     24 N          67.2514   92.3735   10.9175 N.ar    1  UNL1       -0.2414
@<TRIPOS>BOND
     1    18    19    1
     2    19    20   ar
     3    20    21   ar
     4    21    22   ar
     5    22    23   ar
     6    23    16    1
     7    16    17    3
     8    17     1    1
     9     1     2    2
    10     2     3    1
    11     3     4    1
    12     4     5    1
    13     5     6   am
    14     6     7    2
    15     6    10    1
    16    10    11   ar
    17    11    12   ar
    18    12    13   ar
    19    13    14   ar
    20    14    15   ar
    21     5     8    1
    22     8     9    1
    23    23    24   ar
    24    24    19   ar
    25     9     2    1
    26    15    10   ar
@<TRIPOS>MOLECULE
*****
 24 26 0 0 0
SMALL
GASTEIGER

@<TRIPOS>ATOM
      1 C          62.6032   86.5302   16.7022 C.2     1  UNL1        0.0412
      2 C          63.2230   87.8368   16.3039 C.2     1  UNL1       -0.0326
      3 C          63.8977   87.9714   14.9710 C.3     1  UNL1        0.0442
      4 C          64.5175   89.2780   14.5727 C.3     1  UNL1        0.0981
      5 N          64.4625   90.4501   15.5073 N.am    1  UNL1       -0.2754
      6 C          65.0823   91.7566   15.1090 C.2     1  UNL1        0.2490
      7 O          65.0273   92.9286   16.0436 O.2     1  UNL1       -0.2699
      8 C          63.7878   90.3154   16.8402 C.3     1  UNL1        0.0981
      9 C          63.1680   89.0087   17.2385 C.3     1  UNL1        0.0442
     10 C          65.7570   91.8913   13.7761 C.ar    1  UNL1        0.0536
     11 C          67.2470   91.7530   13.6723 C.ar    1  UNL1        0.0045
     12 C          67.9217   91.8877   12.3394 C.ar    1  UNL1        0.0001
     13 C          67.1064   92.1606   11.1103 C.ar    1  UNL1        0.0000
     14 C          65.6165   92.2988   11.2141 C.ar    1  UNL1        0.0001
     15 C          64.9418   92.1642   12.5470 C.ar    1  UNL1        0.0045
     16 C          62.7131   84.1862   14.8331 C.1     1  UNL1       -0.0405
     17 C          62.6582   85.3582   15.7676 C.1     1  UNL1       -0.0583
     18 C          64.0415   82.1517   10.2400 C.3     1  UNL1        0.0521
     19 C          63.4322   81.9970   11.6020 C.ar    1  UNL1        0.0600
     20 C          62.8779   80.6703   12.0293 C.ar    1  UNL1        0.0148
     21 C          62.2686   80.5156   13.3912 C.ar    1  UNL1        0.0034
     22 C          62.2137   81.6875   14.3258 C.ar    1  UNL1        0.0276
     23 C          62.7680   83.0142   13.8985 C.ar    1  UNL1        0.1224
     24 N          63.3773   83.1689   12.5365 N.ar    1  UNL1       -0.2414
@<TRIPOS>BOND
     1    18    19    1
     2    19    20   ar
     3    20    21   ar
     4    21    22   ar
     5    22    23   ar
     6    23    16    1
     7    16    17    3
     8    17     1    1
     9     1     2    2
    10     2     3    1
    11     3     4    1
    12     4     5    1
    13     5     6   am
    14     6     7    2
    15     6    10    1
    16    10    11   ar
    17    11    12   ar
    18    12    13   ar
    19    13    14   ar
    20    14    15   ar
    21     5     8    1
    22     8     9    1
    23    23    24   ar
    24    24    19   ar
    25     9     2    1
    26    15    10   ar
@<TRIPOS>MOLECULE
*****
 24 26 0 0 0
SMALL
GASTEIGER

@<TRIPOS>ATOM
      1 C          63.3604   88.2702   16.6622 C.2     1  UNL1        0.0412
      2 C          63.2144   86.9113   16.0442 C.2     1  UNL1       -0.0326
      3 C          63.6747   86.6742   14.6363 C.3     1  UNL1        0.0442
      4 C          63.5287   85.3153   14.0183 C.3     1  UNL1        0.0981
      5 N          62.9224   84.1933   14.8082 N.am    1  UNL1       -0.2754
      6 C          62.7764   82.8344   14.1901 C.2     1  UNL1        0.2490
      7 O          62.1702   81.7126   14.9800 O.2     1  UNL1       -0.2699
      8 C          62.4621   84.4304   16.2160 C.3     1  UNL1        0.0981
      9 C          62.6082   85.7894   16.8340 C.3     1  UNL1        0.0442
     10 C          63.2367   82.5974   12.7823 C.ar    1  UNL1        0.0536
     11 C          62.7624   81.3884   12.0317 C.ar    1  UNL1        0.0045
     12 C          63.2227   81.1513   10.6239 C.ar    1  UNL1        0.0001
     13 C          64.1572   82.1232    9.9667 C.ar    1  UNL1        0.0000
     14 C          64.6315   83.3322   10.7173 C.ar    1  UNL1        0.0001
     15 C          64.1712   83.5693   12.1251 C.ar    1  UNL1        0.0045
     16 C          64.5730   90.5140   15.0825 C.1     1  UNL1       -0.0405
     17 C          63.9667   89.3921   15.8724 C.1     1  UNL1       -0.0583
     18 C          65.2909   92.9520   10.5504 C.3     1  UNL1        0.0521
     19 C          65.5382   92.8549   12.0266 C.ar    1  UNL1        0.0600
     20 C          66.3917   93.8797   12.7131 C.ar    1  UNL1        0.0148
     21 C          66.6390   93.7825   14.1894 C.ar    1  UNL1        0.0034
     22 C          66.0328   92.6607   14.9792 C.ar    1  UNL1        0.0276
     23 C          65.1793   91.6359   14.2927 C.ar    1  UNL1        0.1224
     24 N          64.9320   91.7330   12.8164 N.ar    1  UNL1       -0.2414
@<TRIPOS>BOND
     1    18    19    1
     2    19    20   ar
     3    20    21   ar
     4    21    22   ar
     5    22    23   ar
     6    23    16    1
     7    16    17    3
     8    17     1    1
     9     1     2    2
    10     2     3    1
    11     3     4    1
    12     4     5    1
    13     5     6   am
    14     6     7    2
    15     6    10    1
    16    10    11   ar
    17    11    12   ar
    18    12    13   ar
    19    13    14   ar
    20    14    15   ar
    21     5     8    1
    22     8     9    1
    23    23    24   ar
    24    24    19   ar
    25     9     2    1
    26    15    10   ar
@<TRIPOS>MOLECULE
*****
 24 26 0 0 0
SMALL
GASTEIGER

@<TRIPOS>ATOM
      1 C          62.2391   88.4072   10.7153 C.2     1  UNL1        0.0412
      2 C          63.0880   89.5472   11.1947 C.2     1  UNL1       -0.0326
      3 C          63.9935   89.3628   12.3764 C.3     1  UNL1        0.0442
      4 C          64.8424   90.5027   12.8558 C.3     1  UNL1        0.0981
      5 N          64.7859   91.8271   12.1536 N.am    1  UNL1       -0.2754
      6 C          65.6348   92.9670   12.6330 C.2     1  UNL1        0.2490
      7 O          65.5783   94.2912   11.9308 O.2     1  UNL1       -0.2699
      8 C          63.8805   92.0114   10.9720 C.3     1  UNL1        0.0981
      9 C          63.0315   90.8714   10.4925 C.3     1  UNL1        0.0442
     10 C          66.5402   92.7827   13.8147 C.ar    1  UNL1        0.0536
     11 C          67.9787   92.4120   13.6067 C.ar    1  UNL1        0.0045
     12 C          68.8841   92.2277   14.7883 C.ar    1  UNL1        0.0001
     13 C          68.3510   92.4140   16.1779 C.ar    1  UNL1        0.0000
     14 C          66.9125   92.7846   16.3859 C.ar    1  UNL1        0.0001
     15 C          66.0071   92.9690   15.2043 C.ar    1  UNL1        0.0045
     16 C          62.3520   85.7586   12.1196 C.1     1  UNL1       -0.0405
     17 C          62.2956   87.0829   11.4175 C.1     1  UNL1       -0.0583
     18 C          62.7158   80.5785   11.9337 C.3     1  UNL1        0.0521
     19 C          62.5904   81.8443   12.7288 C.ar    1  UNL1        0.0600
     20 C          62.5215   81.7857   14.2261 C.ar    1  UNL1        0.0148
     21 C          62.3961   83.0514   15.0212 C.ar    1  UNL1        0.0034
     22 C          62.3396   84.3757   14.3191 C.ar    1  UNL1        0.0276
     23 C          62.4085   84.4343   12.8218 C.ar    1  UNL1        0.1224
     24 N          62.5339   83.1686   12.0267 N.ar    1  UNL1       -0.2414
@<TRIPOS>BOND
     1    18    19    1
     2    19    20   ar
     3    20    21   ar
     4    21    22   ar
     5    22    23   ar
     6    23    16    1
     7    16    17    3
     8    17     1    1
     9     1     2    2
    10     2     3    1
    11     3     4    1
    12     4     5    1
    13     5     6   am
    14     6     7    2
    15     6    10    1
    16    10    11   ar
    17    11    12   ar
    18    12    13   ar
    19    13    14   ar
    20    14    15   ar
    21     5     8    1
    22     8     9    1
    23    23    24   ar
    24    24    19   ar
    25     9     2    1
    26    15    10   ar
@<TRIPOS>MOLECULE
*****
 24 26 0 0 0
SMALL
GASTEIGER

@<TRIPOS>ATOM
      1 C          63.4279   88.4525   16.2884 C.2     1  UNL1        0.0412
      2 C          64.0811   89.6145   15.6008 C.2     1  UNL1       -0.0326
      3 C          64.7184   89.4284   14.2557 C.3     1  UNL1        0.0442
      4 C          65.3716   90.5905   13.5680 C.3     1  UNL1        0.0981
      5 N          65.3876   91.9387   14.2255 N.am    1  UNL1       -0.2754
      6 C          66.0409   93.1007   13.5378 C.2     1  UNL1        0.2490
      7 O          66.0568   94.4488   14.1952 O.2     1  UNL1       -0.2699
      8 C          64.7503   92.1248   15.5705 C.3     1  UNL1        0.0981
      9 C          64.0971   90.9626   16.2582 C.3     1  UNL1        0.0442
     10 C          66.6781   92.9146   12.1927 C.ar    1  UNL1        0.0536
     11 C          66.1461   93.6553   11.0018 C.ar    1  UNL1        0.0045
     12 C          66.7834   93.4692    9.6567 C.ar    1  UNL1        0.0001
     13 C          67.9527   92.5424    9.5026 C.ar    1  UNL1        0.0000
     14 C          68.4847   91.8018   10.6935 C.ar    1  UNL1        0.0001
     15 C          67.8475   91.9879   12.0386 C.ar    1  UNL1        0.0045
     16 C          63.3960   85.7561   14.9736 C.1     1  UNL1       -0.0405
     17 C          63.4119   87.1043   15.6310 C.1     1  UNL1       -0.0583
     18 C          61.1240   81.1444   14.2189 C.3     1  UNL1        0.0521
     19 C          62.2440   82.1021   13.9388 C.ar    1  UNL1        0.0600
     20 C          63.3479   81.7116   13.0014 C.ar    1  UNL1        0.0148
     21 C          64.4679   82.6693   12.7214 C.ar    1  UNL1        0.0034
     22 C          64.4840   84.0175   13.3788 C.ar    1  UNL1        0.0276
     23 C          63.3800   84.4079   14.3162 C.ar    1  UNL1        0.1224
     24 N          62.2600   83.4502   14.5962 N.ar    1  UNL1       -0.2414
@<TRIPOS>BOND
     1    18    19    1
     2    19    20   ar
     3    20    21   ar
     4    21    22   ar
     5    22    23   ar
     6    23    16    1
     7    16    17    3
     8    17     1    1
     9     1     2    2
    10     2     3    1
    11     3     4    1
    12     4     5    1
    13     5     6   am
    14     6     7    2
    15     6    10    1
    16    10    11   ar
    17    11    12   ar
    18    12    13   ar
    19    13    14   ar
    20    14    15   ar
    21     5     8    1
    22     8     9    1
    23    23    24   ar
    24    24    19   ar
    25     9     2    1
    26    15    10   ar
@<TRIPOS>MOLECULE
*****
 24 26 0 0 0
SMALL
GASTEIGER

@<TRIPOS>ATOM
      1 C          65.3200   90.7744   14.4750 C.2     1  UNL1        0.0412
      2 C          64.5971   89.5779   13.9310 C.2     1  UNL1       -0.0326
      3 C          64.1627   89.5528   12.4955 C.3     1  UNL1        0.0442
      4 C          63.4399   88.3563   11.9516 C.3     1  UNL1        0.0981
      5 N          63.1514   87.1850   12.8431 N.am    1  UNL1       -0.2754
      6 C          62.4285   85.9885   12.2991 C.2     1  UNL1        0.2490
      7 O          62.1401   84.8172   13.1906 O.2     1  UNL1       -0.2699
      8 C          63.5858   87.2101   14.2786 C.3     1  UNL1        0.0981
      9 C          64.3087   88.4067   14.8225 C.3     1  UNL1        0.0442
     10 C          61.9941   85.9633   10.8636 C.ar    1  UNL1        0.0536
     11 C          62.8205   85.2392    9.8425 C.ar    1  UNL1        0.0045
     12 C          62.3860   85.2141    8.4070 C.ar    1  UNL1        0.0001
     13 C          61.1252   85.9130    7.9927 C.ar    1  UNL1        0.0000
     14 C          60.2989   86.6371    9.0138 C.ar    1  UNL1        0.0001
     15 C          60.7333   86.6623   10.4492 C.ar    1  UNL1        0.0045
     16 C          65.8968   93.1171   12.6919 C.1     1  UNL1       -0.0405
     17 C          65.6085   91.9458   13.5834 C.1     1  UNL1       -0.0583
     18 C          67.2471   95.0106    8.0453 C.3     1  UNL1        0.0521
     19 C          66.8604   95.2352    9.4771 C.ar    1  UNL1        0.0600
     20 C          66.7622   96.6310   10.0174 C.ar    1  UNL1        0.0148
     21 C          66.3755   96.8556   11.4492 C.ar    1  UNL1        0.0034
     22 C          66.0871   95.6843   12.3407 C.ar    1  UNL1        0.0276
     23 C          66.1853   94.2884   11.8004 C.ar    1  UNL1        0.1224
     24 N          66.5720   94.0639   10.3686 N.ar    1  UNL1       -0.2414
@<TRIPOS>BOND
     1    18    19    1
     2    19    20   ar
     3    20    21   ar
     4    21    22   ar
     5    22    23   ar
     6    23    16    1
     7    16    17    3
     8    17     1    1
     9     1     2    2
    10     2     3    1
    11     3     4    1
    12     4     5    1
    13     5     6   am
    14     6     7    2
    15     6    10    1
    16    10    11   ar
    17    11    12   ar
    18    12    13   ar
    19    13    14   ar
    20    14    15   ar
    21     5     8    1
    22     8     9    1
    23    23    24   ar
    24    24    19   ar
    25     9     2    1
    26    15    10   ar
@<TRIPOS>MOLECULE
*****
 24 26 0 0 0
SMALL
GASTEIGER

@<TRIPOS>ATOM
      1 C          72.0329   77.0522   14.5550 C.2     1  UNL1        0.0412
      2 C          72.1941   77.9793   13.3869 C.2     1  UNL1       -0.0326
      3 C          72.0305   77.4601   11.9891 C.3     1  UNL1        0.0442
      4 C          72.1918   78.3871   10.8210 C.3     1  UNL1        0.0981
      5 N          72.5167   79.8335   11.0506 N.am    1  UNL1       -0.2754
      6 C          72.6780   80.7605    9.8825 C.2     1  UNL1        0.2490
      7 O          73.0029   82.2067   10.1121 O.2     1  UNL1       -0.2699
      8 C          72.6803   80.3526   12.4484 C.3     1  UNL1        0.0981
      9 C          72.5190   79.4255   13.6165 C.3     1  UNL1        0.0442
     10 C          72.5143   80.2413    8.4848 C.ar    1  UNL1        0.0536
     11 C          71.3829   80.7310    7.6305 C.ar    1  UNL1        0.0045
     12 C          71.2192   80.2118    6.2327 C.ar    1  UNL1        0.0001
     13 C          72.1870   79.2029    5.6893 C.ar    1  UNL1        0.0000
     14 C          73.3185   78.7132    6.5436 C.ar    1  UNL1        0.0001
     15 C          73.4821   79.2324    7.9414 C.ar    1  UNL1        0.0045
     16 C          71.3830   74.1596   14.0959 C.1     1  UNL1       -0.0405
     17 C          71.7079   75.6059   14.3254 C.1     1  UNL1       -0.0583
     18 C          69.1330   70.4524   11.2333 C.3     1  UNL1        0.0521
     19 C          69.9331   70.8597   12.4350 C.ar    1  UNL1        0.0600
     20 C          70.4082   69.8208   13.4070 C.ar    1  UNL1        0.0148
     21 C          71.2083   70.2282   14.6087 C.ar    1  UNL1        0.0034
     22 C          71.5332   71.6744   14.8383 C.ar    1  UNL1        0.0276
     23 C          71.0581   72.7133   13.8663 C.ar    1  UNL1        0.1224
     24 N          70.2580   72.3060   12.6646 N.ar    1  UNL1       -0.2414
@<TRIPOS>BOND
     1    18    19    1
     2    19    20   ar
     3    20    21   ar
     4    21    22   ar
     5    22    23   ar
     6    23    16    1
     7    16    17    3
     8    17     1    1
     9     1     2    2
    10     2     3    1
    11     3     4    1
    12     4     5    1
    13     5     6   am
    14     6     7    2
    15     6    10    1
    16    10    11   ar
    17    11    12   ar
    18    12    13   ar
    19    13    14   ar
    20    14    15   ar
    21     5     8    1
    22     8     9    1
    23    23    24   ar
    24    24    19   ar
    25     9     2    1
    26    15    10   ar
