@<TRIPOS>MOLECULE
*****
 19 21 0 0 0
SMALL
GASTEIGER

@<TRIPOS>ATOM
      1 C          66.2237   92.6025   11.9493 C.ar    1  UNL1        0.2075
      2 C          64.9564   91.9704   11.4551 C.ar    1  UNL1        0.1851
      3 O          64.4245   91.7363   10.0723 O.2     1  UNL1       -0.4471
      4 C          63.0937   91.0555   10.1966 C.ar    1  UNL1        0.1799
      5 C          62.8031   90.8687   11.6563 C.ar    1  UNL1        0.0468
      6 C          63.9543   91.4342   12.4341 C.ar    1  UNL1        0.0750
      7 C          64.2196   91.5301   13.9073 C.ar    1  UNL1        0.1479
      8 C          65.4869   92.1623   14.4016 C.ar    1  UNL1        0.1106
      9 C          65.7522   92.2582   15.8749 C.ar    1  UNL1        0.2043
     10 O          64.7502   91.7220   16.8538 O.2     1  UNL1       -0.2863
     11 C          67.0195   92.8903   16.3691 C.ar    1  UNL1        0.0752
     12 C          68.0216   93.4265   15.3901 C.ar    1  UNL1        0.1265
     13 C          69.2889   94.0587   15.8844 C.3     1  UNL1        0.0726
     14 O          67.7563   93.3306   13.9169 O.2     1  UNL1       -0.4543
     15 C          66.4889   92.6984   13.4226 C.ar    1  UNL1        0.1875
     16 C          67.9178   92.2076   10.0196 C.3     1  UNL1        0.2528
     17 O          67.2258   93.1388   10.9704 O.3     1  UNL1       -0.4654
     18 O          63.2176   90.9939   14.8863 O.3     1  UNL1       -0.4711
     19 C          63.2067   89.5325   15.2239 C.3     1  UNL1        0.2525
@<TRIPOS>BOND
     1    16    17    1
     2    17     1    1
     3     1     2   ar
     4     2     3   ar
     5     3     4   ar
     6     4     5   ar
     7     5     6   ar
     8     6     7   ar
     9     7    18    1
    10    18    19    1
    11     7     8   ar
    12     8     9   ar
    13     9    10    2
    14     9    11   ar
    15    11    12   ar
    16    12    13    1
    17    12    14   ar
    18    14    15   ar
    19    15     1   ar
    20     6     2   ar
    21    15     8   ar
@<TRIPOS>MOLECULE
*****
 19 21 0 0 0
SMALL
GASTEIGER

@<TRIPOS>ATOM
      1 C          64.3250   90.0671   14.1587 C.ar    1  UNL1        0.2075
      2 C          65.2477   91.2303   14.3719 C.ar    1  UNL1        0.1851
      3 O          66.0873   91.6436   15.5442 O.2     1  UNL1       -0.4471
      4 C          66.8087   92.9060   15.1755 C.ar    1  UNL1        0.1799
      5 C          66.4150   93.2729   13.7753 C.ar    1  UNL1        0.0468
      6 C          65.4502   92.2372   13.2787 C.ar    1  UNL1        0.0750
      7 C          64.7299   92.0809   11.9723 C.ar    1  UNL1        0.1479
      8 C          63.8072   90.9177   11.7591 C.ar    1  UNL1        0.1106
      9 C          63.0869   90.7615   10.4526 C.ar    1  UNL1        0.2043
     10 O          63.2894   91.7684    9.3595 O.2     1  UNL1       -0.2863
     11 C          62.1641   89.5983   10.2394 C.ar    1  UNL1        0.0752
     12 C          61.9616   88.5913   11.3326 C.ar    1  UNL1        0.1265
     13 C          61.0388   87.4281   11.1194 C.3     1  UNL1        0.0726
     14 O          62.6819   88.7476   12.6390 O.2     1  UNL1       -0.4543
     15 C          63.6047   89.9109   12.8522 C.ar    1  UNL1        0.1875
     16 C          63.1808   89.3580   16.3809 C.3     1  UNL1        0.2528
     17 O          64.1225   89.0601   15.2519 O.3     1  UNL1       -0.4654
     18 O          64.9324   93.0878   10.8791 O.3     1  UNL1       -0.4711
     19 C          66.2810   93.2406   10.2405 C.3     1  UNL1        0.2525
@<TRIPOS>BOND
     1    16    17    1
     2    17     1    1
     3     1     2   ar
     4     2     3   ar
     5     3     4   ar
     6     4     5   ar
     7     5     6   ar
     8     6     7   ar
     9     7    18    1
    10    18    19    1
    11     7     8   ar
    12     8     9   ar
    13     9    10    2
    14     9    11   ar
    15    11    12   ar
    16    12    13    1
    17    12    14   ar
    18    14    15   ar
    19    15     1   ar
    20     6     2   ar
    21    15     8   ar
@<TRIPOS>MOLECULE
*****
 19 21 0 0 0
SMALL
GASTEIGER

@<TRIPOS>ATOM
      1 C          62.6166   85.0972   12.0492 C.ar    1  UNL1        0.2075
      2 C          63.4427   85.5361   13.2217 C.ar    1  UNL1        0.1851
      3 O          64.1002   84.7681   14.3299 O.2     1  UNL1       -0.4471
      4 C          64.7976   85.7500   15.2239 C.ar    1  UNL1        0.1799
      5 C          64.5713   87.1248   14.6683 C.ar    1  UNL1        0.0468
      6 C          63.7339   86.9926   13.4309 C.ar    1  UNL1        0.0750
      7 C          63.1989   88.0103   12.4675 C.ar    1  UNL1        0.1479
      8 C          62.3727   87.5715   11.2950 C.ar    1  UNL1        0.1106
      9 C          61.8377   88.5892   10.3316 C.ar    1  UNL1        0.2043
     10 O          62.1289   90.0457   10.5408 O.2     1  UNL1       -0.2863
     11 C          61.0116   88.1504    9.1591 C.ar    1  UNL1        0.0752
     12 C          60.7203   86.6938    8.9499 C.ar    1  UNL1        0.1265
     13 C          59.8942   86.2550    7.7773 C.3     1  UNL1        0.0726
     14 O          61.2553   85.6762    9.9132 O.2     1  UNL1       -0.4543
     15 C          62.0816   86.1150   11.0858 C.ar    1  UNL1        0.1875
     16 C          63.4343   82.6991   11.4747 C.3     1  UNL1        0.2528
     17 O          62.3253   83.6407   11.8400 O.3     1  UNL1       -0.4654
     18 O          63.4901   89.4668   12.6767 O.3     1  UNL1       -0.4711
     19 C          63.0989   90.1328   13.9625 C.3     1  UNL1        0.2525
@<TRIPOS>BOND
     1    16    17    1
     2    17     1    1
     3     1     2   ar
     4     2     3   ar
     5     3     4   ar
     6     4     5   ar
     7     5     6   ar
     8     6     7   ar
     9     7    18    1
    10    18    19    1
    11     7     8   ar
    12     8     9   ar
    13     9    10    2
    14     9    11   ar
    15    11    12   ar
    16    12    13    1
    17    12    14   ar
    18    14    15   ar
    19    15     1   ar
    20     6     2   ar
    21    15     8   ar
@<TRIPOS>MOLECULE
*****
 19 21 0 0 0
SMALL
GASTEIGER

@<TRIPOS>ATOM
      1 C          61.8039   86.6762   10.6852 C.ar    1  UNL1        0.2075
      2 C          62.0235   88.1588   10.7452 C.ar    1  UNL1        0.1851
      3 O          61.5399   89.2811    9.8753 O.2     1  UNL1       -0.4471
      4 C          62.0856   90.5642   10.4283 C.ar    1  UNL1        0.1799
      5 C          62.9063   90.2350   11.6399 C.ar    1  UNL1        0.0468
      6 C          62.8680   88.7483   11.8358 C.ar    1  UNL1        0.0750
      7 C          63.4929   87.8553   12.8663 C.ar    1  UNL1        0.1479
      8 C          63.2733   86.3727   12.8062 C.ar    1  UNL1        0.1106
      9 C          63.8982   85.4796   13.8368 C.ar    1  UNL1        0.2043
     10 O          64.7427   86.0692   14.9272 O.2     1  UNL1       -0.2863
     11 C          63.6786   83.9970   13.7767 C.ar    1  UNL1        0.0752
     12 C          62.8341   83.4074   12.6862 C.ar    1  UNL1        0.1265
     13 C          62.6146   81.9248   12.6262 C.3     1  UNL1        0.0726
     14 O          62.2092   84.3004   11.6557 O.2     1  UNL1       -0.4543
     15 C          62.4288   85.7831   11.7158 C.ar    1  UNL1        0.1875
     16 C          61.4660   86.0639    8.1830 C.3     1  UNL1        0.2528
     17 O          60.9594   86.0865    9.5947 O.3     1  UNL1       -0.4654
     18 O          64.3374   88.4448   13.9568 O.3     1  UNL1       -0.4711
     19 C          63.7311   89.4004   14.9414 C.3     1  UNL1        0.2525
@<TRIPOS>BOND
     1    16    17    1
     2    17     1    1
     3     1     2   ar
     4     2     3   ar
     5     3     4   ar
     6     4     5   ar
     7     5     6   ar
     8     6     7   ar
     9     7    18    1
    10    18    19    1
    11     7     8   ar
    12     8     9   ar
    13     9    10    2
    14     9    11   ar
    15    11    12   ar
    16    12    13    1
    17    12    14   ar
    18    14    15   ar
    19    15     1   ar
    20     6     2   ar
    21    15     8   ar
@<TRIPOS>MOLECULE
*****
 19 21 0 0 0
SMALL
GASTEIGER

@<TRIPOS>ATOM
      1 C          63.8381   85.6845   13.8379 C.ar    1  UNL1        0.2075
      2 C          63.5252   84.3736   13.1796 C.ar    1  UNL1        0.1851
      3 O          63.7413   82.9547   13.6155 O.2     1  UNL1       -0.4471
      4 C          63.2227   82.0535   12.5344 C.ar    1  UNL1        0.1799
      5 C          62.6861   82.9155   11.4302 C.ar    1  UNL1        0.0468
      6 C          62.8731   84.3493   11.8289 C.ar    1  UNL1        0.0750
      7 C          62.5338   85.6361   11.1367 C.ar    1  UNL1        0.1479
      8 C          62.8466   86.9470   11.7951 C.ar    1  UNL1        0.1106
      9 C          62.5073   88.2338   11.1028 C.ar    1  UNL1        0.2043
     10 O          61.8552   88.2095    9.7523 O.2     1  UNL1       -0.2863
     11 C          62.8201   89.5448   11.7612 C.ar    1  UNL1        0.0752
     12 C          63.4723   89.5691   13.1118 C.ar    1  UNL1        0.1265
     13 C          63.7851   90.8800   13.7702 C.3     1  UNL1        0.0726
     14 O          63.8116   88.2823   13.8040 O.2     1  UNL1       -0.4543
     15 C          63.4987   86.9713   13.1456 C.ar    1  UNL1        0.1875
     16 C          63.6468   85.7659   16.4277 C.3     1  UNL1        0.2528
     17 O          64.4902   85.7089   15.1886 O.3     1  UNL1       -0.4654
     18 O          61.8816   85.6118    9.7861 O.3     1  UNL1       -0.4711
     19 C          62.7045   85.3454    8.5606 C.3     1  UNL1        0.2525
@<TRIPOS>BOND
     1    16    17    1
     2    17     1    1
     3     1     2   ar
     4     2     3   ar
     5     3     4   ar
     6     4     5   ar
     7     5     6   ar
     8     6     7   ar
     9     7    18    1
    10    18    19    1
    11     7     8   ar
    12     8     9   ar
    13     9    10    2
    14     9    11   ar
    15    11    12   ar
    16    12    13    1
    17    12    14   ar
    18    14    15   ar
    19    15     1   ar
    20     6     2   ar
    21    15     8   ar
@<TRIPOS>MOLECULE
*****
 19 21 0 0 0
SMALL
GASTEIGER

@<TRIPOS>ATOM
      1 C          62.7272   89.7214   11.6646 C.ar    1  UNL1        0.2075
      2 C          63.5019   90.0390   12.9092 C.ar    1  UNL1        0.1851
      3 O          63.9426   91.3397   13.5126 O.2     1  UNL1       -0.4471
      4 C          64.6930   91.0343   14.7750 C.ar    1  UNL1        0.1799
      5 C          64.7161   89.5449   14.9518 C.ar    1  UNL1        0.0468
      6 C          63.9800   88.9298   13.7986 C.ar    1  UNL1        0.0750
      7 C          63.6832   87.5030   13.4436 C.ar    1  UNL1        0.1479
      8 C          62.9084   87.1854   12.1990 C.ar    1  UNL1        0.1106
      9 C          62.6116   85.7585   11.8440 C.ar    1  UNL1        0.2043
     10 O          63.0896   84.6493   12.7334 O.2     1  UNL1       -0.2863
     11 C          61.8369   85.4409   10.5995 C.ar    1  UNL1        0.0752
     12 C          61.3588   86.5501    9.7100 C.ar    1  UNL1        0.1265
     13 C          60.5840   86.2325    8.4655 C.3     1  UNL1        0.0726
     14 O          61.6556   87.9769   10.0650 O.2     1  UNL1       -0.4543
     15 C          62.4304   88.2945   11.3096 C.ar    1  UNL1        0.1875
     16 C          63.2318   91.6044    9.9472 C.3     1  UNL1        0.2528
     17 O          62.2491   90.8306   10.7751 O.3     1  UNL1       -0.4654
     18 O          64.1612   86.3937   14.3330 O.3     1  UNL1       -0.4711
     19 C          63.7141   86.3339   15.7636 C.3     1  UNL1        0.2525
@<TRIPOS>BOND
     1    16    17    1
     2    17     1    1
     3     1     2   ar
     4     2     3   ar
     5     3     4   ar
     6     4     5   ar
     7     5     6   ar
     8     6     7   ar
     9     7    18    1
    10    18    19    1
    11     7     8   ar
    12     8     9   ar
    13     9    10    2
    14     9    11   ar
    15    11    12   ar
    16    12    13    1
    17    12    14   ar
    18    14    15   ar
    19    15     1   ar
    20     6     2   ar
    21    15     8   ar
@<TRIPOS>MOLECULE
*****
 19 21 0 0 0
SMALL
GASTEIGER

@<TRIPOS>ATOM
      1 C          62.0323   86.1808   11.1232 C.ar    1  UNL1        0.2075
      2 C          61.3095   86.9251   10.0400 C.ar    1  UNL1        0.1851
      3 O          60.4779   86.4563    8.8829 O.2     1  UNL1       -0.4471
      4 C          60.0080   87.6655    8.1299 C.ar    1  UNL1        0.1799
      5 C          60.5491   88.8816    8.8215 C.ar    1  UNL1        0.0468
      6 C          61.3534   88.4240   10.0020 C.ar    1  UNL1        0.0750
      7 C          62.1202   89.1786   11.0474 C.ar    1  UNL1        0.1479
      8 C          62.8430   88.4342   12.1306 C.ar    1  UNL1        0.1106
      9 C          63.6098   89.1888   13.1760 C.ar    1  UNL1        0.2043
     10 O          63.6538   90.6876   13.1380 O.2     1  UNL1       -0.2863
     11 C          64.3326   88.4445   14.2592 C.ar    1  UNL1        0.0752
     12 C          64.2887   86.9456   14.2973 C.ar    1  UNL1        0.1265
     13 C          65.0115   86.2012   15.3805 C.3     1  UNL1        0.0726
     14 O          63.5219   86.1910   13.2519 O.2     1  UNL1       -0.4543
     15 C          62.7991   86.9354   12.1686 C.ar    1  UNL1        0.1875
     16 C          63.2052   83.8864   10.7920 C.3     1  UNL1        0.2528
     17 O          61.9883   84.6819   11.1613 O.3     1  UNL1       -0.4654
     18 O          62.1642   90.6774   11.0094 O.3     1  UNL1       -0.4711
     19 C          63.1044   91.3767   10.0729 C.3     1  UNL1        0.2525
@<TRIPOS>BOND
     1    16    17    1
     2    17     1    1
     3     1     2   ar
     4     2     3   ar
     5     3     4   ar
     6     4     5   ar
     7     5     6   ar
     8     6     7   ar
     9     7    18    1
    10    18    19    1
    11     7     8   ar
    12     8     9   ar
    13     9    10    2
    14     9    11   ar
    15    11    12   ar
    16    12    13    1
    17    12    14   ar
    18    14    15   ar
    19    15     1   ar
    20     6     2   ar
    21    15     8   ar
@<TRIPOS>MOLECULE
*****
 19 21 0 0 0
SMALL
GASTEIGER

@<TRIPOS>ATOM
      1 C          62.3823   85.7312   11.0929 C.ar    1  UNL1        0.2075
      2 C          62.7043   84.5124   11.9058 C.ar    1  UNL1        0.1851
      3 O          62.4736   83.0511   11.6580 O.2     1  UNL1       -0.4471
      4 C          63.0119   82.2910   12.8338 C.ar    1  UNL1        0.1799
      5 C          63.5752   83.2826   13.8083 C.ar    1  UNL1        0.0468
      6 C          63.3851   84.6555   13.2347 C.ar    1  UNL1        0.0750
      7 C          63.7439   86.0174   13.7508 C.ar    1  UNL1        0.1479
      8 C          63.4219   87.2363   12.9380 C.ar    1  UNL1        0.1106
      9 C          63.7807   88.5982   13.4541 C.ar    1  UNL1        0.2043
     10 O          64.4615   88.7413   14.7830 O.2     1  UNL1       -0.2863
     11 C          63.4588   89.8171   12.6413 C.ar    1  UNL1        0.0752
     12 C          62.7779   89.6741   11.3123 C.ar    1  UNL1        0.1265
     13 C          62.4560   90.8929   10.4995 C.3     1  UNL1        0.0726
     14 O          62.4191   88.3121   10.7962 O.2     1  UNL1       -0.4543
     15 C          62.7411   87.0932   11.6091 C.ar    1  UNL1        0.1875
     16 C          62.5079   85.6296    8.4999 C.3     1  UNL1        0.2528
     17 O          61.7015   85.5882    9.7640 O.3     1  UNL1       -0.4654
     18 O          64.4247   86.1605   15.0797 O.3     1  UNL1       -0.4711
     19 C          63.6736   85.8615   16.3433 C.3     1  UNL1        0.2525
@<TRIPOS>BOND
     1    16    17    1
     2    17     1    1
     3     1     2   ar
     4     2     3   ar
     5     3     4   ar
     6     4     5   ar
     7     5     6   ar
     8     6     7   ar
     9     7    18    1
    10    18    19    1
    11     7     8   ar
    12     8     9   ar
    13     9    10    2
    14     9    11   ar
    15    11    12   ar
    16    12    13    1
    17    12    14   ar
    18    14    15   ar
    19    15     1   ar
    20     6     2   ar
    21    15     8   ar
@<TRIPOS>MOLECULE
*****
 19 21 0 0 0
SMALL
GASTEIGER

@<TRIPOS>ATOM
      1 C          62.3149   89.4730   10.8582 C.ar    1  UNL1        0.2075
      2 C          61.6552   88.3574   10.1032 C.ar    1  UNL1        0.1851
      3 O          60.8581   88.3391    8.8326 O.2     1  UNL1       -0.4471
      4 C          60.4501   86.9214    8.5618 C.ar    1  UNL1        0.1799
      5 C          60.9950   86.0633    9.6649 C.ar    1  UNL1        0.0468
      6 C          61.7398   86.9509   10.6176 C.ar    1  UNL1        0.0750
      7 C          62.4840   86.6600   11.8870 C.ar    1  UNL1        0.1479
      8 C          63.1438   87.7757   12.6420 C.ar    1  UNL1        0.1106
      9 C          63.8881   87.4848   13.9115 C.ar    1  UNL1        0.2043
     10 O          63.9726   86.0784   14.4259 O.2     1  UNL1       -0.2863
     11 C          64.5478   88.6005   14.6665 C.ar    1  UNL1        0.0752
     12 C          64.4632   90.0070   14.1522 C.ar    1  UNL1        0.1265
     13 C          65.1229   91.1227   14.9072 C.3     1  UNL1        0.0726
     14 O          63.7189   90.2979   12.8828 O.2     1  UNL1       -0.4543
     15 C          63.0592   89.1821   12.1277 C.ar    1  UNL1        0.1875
     16 C          63.4838   91.6311   10.0060 C.3     1  UNL1        0.2528
     17 O          62.2304   90.8796   10.3439 O.3     1  UNL1       -0.4654
     18 O          62.5686   85.2535   12.4014 O.3     1  UNL1       -0.4711
     19 C          63.2566   84.1976   11.5881 C.3     1  UNL1        0.2525
@<TRIPOS>BOND
     1    16    17    1
     2    17     1    1
     3     1     2   ar
     4     2     3   ar
     5     3     4   ar
     6     4     5   ar
     7     5     6   ar
     8     6     7   ar
     9     7    18    1
    10    18    19    1
    11     7     8   ar
    12     8     9   ar
    13     9    10    2
    14     9    11   ar
    15    11    12   ar
    16    12    13    1
    17    12    14   ar
    18    14    15   ar
    19    15     1   ar
    20     6     2   ar
    21    15     8   ar
