@<TRIPOS>MOLECULE
*****
 43 48 0 0 0
SMALL
GASTEIGER

@<TRIPOS>ATOM
      1 N          60.2426   88.7018    8.0229 N.ar    1  UNL1       -0.2823
      2 C          60.1060   87.2097    8.0932 C.ar    1  UNL1        0.1831
      3 N          60.8648   86.7309    9.2953 N.ar    1  UNL1       -0.2236
      4 C          61.4704   87.9271    9.9679 C.ar    1  UNL1        0.0991
      5 C          62.3222   88.0645   11.1948 C.ar    1  UNL1        0.0207
      6 C          62.7896   89.4201   11.6353 C.ar    1  UNL1        0.0046
      7 C          62.4051   90.6381   10.8489 C.ar    1  UNL1        0.0017
      8 C          61.5532   90.5007    9.6220 C.ar    1  UNL1        0.0191
      9 C          61.0859   89.1452    9.1815 C.ar    1  UNL1        0.0835
     10 C          59.4016   91.2062    5.1792 C.ar    1  UNL1        0.1512
     11 C          60.3966   90.5058    6.0564 C.ar    1  UNL1        0.0619
     12 C          59.6416   89.5939    6.9775 C.ar    1  UNL1        0.0987
     13 S          58.1799   89.7307    6.6696 S.2     1  UNL1       -0.0618
     14 C          58.0316   90.7272    5.5582 C.ar    1  UNL1        0.1178
     15 C          56.7400   91.1673    4.9352 C.2     1  UNL1        0.2518
     16 N          56.7545   92.0005    3.6880 N.am    1  UNL1       -0.3248
     17 O          55.4339   90.7742    5.5595 O.2     1  UNL1       -0.2697
     18 H          57.6117   92.2585    3.2783 H       1  UNL1        0.1453
     19 H          55.9068   92.2894    3.2791 H       1  UNL1        0.1453
     20 O          59.7206   92.2095    4.1108 O.3     1  UNL1       -0.4740
     21 C          62.0971   91.2173    3.7675 C.3     1  UNL1        0.0523
     22 C          60.9478   92.0400    3.2651 C.3     1  UNL1        0.1891
     23 C          61.0257   92.6932    1.9171 C.ar    1  UNL1        0.0278
     24 C          59.8035   92.7747    1.0514 C.ar    1  UNL1        0.0000
     25 C          59.8814   93.4279   -0.2967 C.ar    1  UNL1       -0.0002
     26 C          61.1816   93.9997   -0.7790 C.ar    1  UNL1        0.0008
     27 C          62.4038   93.9182    0.0867 C.ar    1  UNL1        0.0112
     28 C          62.3259   93.2650    1.4348 C.ar    1  UNL1        0.0570
     29 CL         63.5481   93.1835    2.3005 Cl      1  UNL1       -0.0825
     30 C          63.6415   89.5576   12.8623 C.ar    1  UNL1        0.0397
     31 C          63.9082   88.4840   13.8753 C.ar    1  UNL1        0.1216
     32 N          64.8078   89.0557   14.9307 N.ar    1  UNL1       -0.1676
     33 N          65.0971   90.4827   14.5700 N.ar    1  UNL1       -0.2480
     34 C          64.3762   90.7928   13.2916 C.ar    1  UNL1        0.0967
     35 C          65.9563   91.4327   15.3505 C.3     1  UNL1        0.1448
     36 C          67.2010   91.9982   14.7334 C.3     1  UNL1        0.0988
     37 N          67.1555   92.5793   13.3513 N.3     1  UNL1       -0.2686
     38 C          67.8678   91.8914   12.2246 C.3     1  UNL1        0.0897
     39 C          67.8223   92.4725   10.8424 C.3     1  UNL1        0.0897
     40 N          67.0644   93.7416   10.5871 N.3     1  UNL1       -0.2691
     41 C          67.0189   94.3227    9.2049 C.3     1  UNL1        0.0897
     42 C          66.3521   94.4295   11.7137 C.3     1  UNL1        0.0897
     43 C          66.3976   93.8484   13.0958 C.3     1  UNL1        0.0897
@<TRIPOS>BOND
     1    22    21    1
     2    22    20    1
     3    20    10    1
     4    10    11   ar
     5    11    12   ar
     6    12     1    1
     7     1     2   ar
     8     2     3   ar
     9     3     4   ar
    10     4     5   ar
    11     5     6   ar
    12     6    30    1
    13    30    31   ar
    14    31    32   ar
    15    32    33   ar
    16    33    35    1
    17    35    36    1
    18    36    37    1
    19    37    38    1
    20    38    39    1
    21    39    40    1
    22    40    41    1
    23    40    42    1
    24    42    43    1
    25    33    34   ar
    26     6     7   ar
    27     7     8   ar
    28     8     9   ar
    29    12    13   ar
    30    13    14   ar
    31    14    15    1
    32    15    16   am
    33    15    17    2
    34    22    23    1
    35    23    24   ar
    36    24    25   ar
    37    25    26   ar
    38    26    27   ar
    39    27    28   ar
    40    28    29    1
    41    14    10   ar
    42    28    23   ar
    43     9     1   ar
    44     9     4   ar
    45    34    30   ar
    46    43    37    1
    47    16    18    1
    48    16    19    1
@<TRIPOS>MOLECULE
*****
 43 48 0 0 0
SMALL
GASTEIGER

@<TRIPOS>ATOM
      1 N          59.9867   88.6543    7.6103 N.ar    1  UNL1       -0.2823
      2 C          59.3301   87.3060    7.6421 C.ar    1  UNL1        0.1831
      3 N          59.8086   86.5863    8.8680 N.ar    1  UNL1       -0.2236
      4 C          60.7609   87.4897    9.5939 C.ar    1  UNL1        0.0991
      5 C          61.5421   87.3137   10.8622 C.ar    1  UNL1        0.0207
      6 C          62.4333   88.4158   11.3532 C.ar    1  UNL1        0.0046
      7 C          62.5434   89.6939   10.5758 C.ar    1  UNL1        0.0017
      8 C          61.7622   89.8700    9.3075 C.ar    1  UNL1        0.0191
      9 C          60.8710   88.7679    8.8165 C.ar    1  UNL1        0.0835
     10 C          60.2377   91.4146    4.8930 C.ar    1  UNL1        0.1512
     11 C          60.8810   90.4734    5.8678 C.ar    1  UNL1        0.0619
     12 C          59.7930   89.7047    6.5571 C.ar    1  UNL1        0.0987
     13 S          58.4771   90.1707    6.0082 S.2     1  UNL1       -0.0618
     14 C          58.7519   91.2274    4.9797 C.ar    1  UNL1        0.1178
     15 C          57.7218   91.9672    4.1786 C.2     1  UNL1        0.2518
     16 N          58.0677   92.4967    2.8185 N.am    1  UNL1       -0.3248
     17 O          56.3459   92.1776    4.7378 O.2     1  UNL1       -0.2697
     18 H          58.9707   92.3586    2.4515 H       1  UNL1        0.1453
     19 H          57.3916   92.9822    2.2927 H       1  UNL1        0.1453
     20 O          60.9542   92.3742    3.9900 O.3     1  UNL1       -0.4740
     21 C          62.9411   90.8069    3.4020 C.3     1  UNL1        0.0523
     22 C          61.9569   91.8642    2.9978 C.3     1  UNL1        0.1891
     23 C          61.9755   92.4116    1.6014 C.ar    1  UNL1        0.0278
     24 C          60.9276   91.9873    0.6155 C.ar    1  UNL1        0.0000
     25 C          60.9461   92.5347   -0.7809 C.ar    1  UNL1       -0.0002
     26 C          62.0126   93.5064   -1.1915 C.ar    1  UNL1        0.0008
     27 C          63.0604   93.9307   -0.2057 C.ar    1  UNL1        0.0112
     28 C          63.0419   93.3833    1.1908 C.ar    1  UNL1        0.0570
     29 CL         64.0897   93.8076    2.1766 Cl      1  UNL1       -0.0825
     30 C          63.2146   88.2398   12.6216 C.ar    1  UNL1        0.0397
     31 C          63.8083   89.3394   13.4512 C.ar    1  UNL1        0.1216
     32 N          64.4998   88.7125   14.6254 N.ar    1  UNL1       -0.1676
     33 N          64.3336   87.2253   14.5214 N.ar    1  UNL1       -0.2480
     34 C          63.5392   86.9332   13.2830 C.ar    1  UNL1        0.0967
     35 C          64.8678   86.2088   15.4865 C.3     1  UNL1        0.1448
     36 C          63.9931   85.0816   15.9491 C.3     1  UNL1        0.0988
     37 N          63.6757   83.9483   15.0191 N.3     1  UNL1       -0.2686
     38 C          64.6162   83.6100   13.9007 C.3     1  UNL1        0.0897
     39 C          64.2989   82.4766   12.9706 C.3     1  UNL1        0.0897
     40 N          63.0409   81.6816   13.1592 N.3     1  UNL1       -0.2691
     41 C          62.7236   80.5482   12.2292 C.3     1  UNL1        0.0897
     42 C          62.1004   82.0199   14.2777 C.3     1  UNL1        0.0897
     43 C          62.4178   83.1532   15.2076 C.3     1  UNL1        0.0897
@<TRIPOS>BOND
     1    22    21    1
     2    22    20    1
     3    20    10    1
     4    10    11   ar
     5    11    12   ar
     6    12     1    1
     7     1     2   ar
     8     2     3   ar
     9     3     4   ar
    10     4     5   ar
    11     5     6   ar
    12     6    30    1
    13    30    31   ar
    14    31    32   ar
    15    32    33   ar
    16    33    35    1
    17    35    36    1
    18    36    37    1
    19    37    38    1
    20    38    39    1
    21    39    40    1
    22    40    41    1
    23    40    42    1
    24    42    43    1
    25    33    34   ar
    26     6     7   ar
    27     7     8   ar
    28     8     9   ar
    29    12    13   ar
    30    13    14   ar
    31    14    15    1
    32    15    16   am
    33    15    17    2
    34    22    23    1
    35    23    24   ar
    36    24    25   ar
    37    25    26   ar
    38    26    27   ar
    39    27    28   ar
    40    28    29    1
    41    14    10   ar
    42    28    23   ar
    43     9     1   ar
    44     9     4   ar
    45    34    30   ar
    46    43    37    1
    47    16    18    1
    48    16    19    1
@<TRIPOS>MOLECULE
*****
 43 48 0 0 0
SMALL
GASTEIGER

@<TRIPOS>ATOM
      1 N          62.0374   87.3432   10.8013 N.ar    1  UNL1       -0.2823
      2 C          62.4476   88.5489   11.5936 C.ar    1  UNL1        0.1831
      3 N          61.9354   89.7666   10.8831 N.ar    1  UNL1       -0.2236
      4 C          61.2086   89.3135    9.6517 C.ar    1  UNL1        0.0991
      5 C          60.4976   90.0711    8.5699 C.ar    1  UNL1        0.0207
      6 C          59.8496   89.3310    7.4375 C.ar    1  UNL1        0.0046
      7 C          59.9126   87.8332    7.3870 C.ar    1  UNL1        0.0017
      8 C          60.6236   87.0755    8.4688 C.ar    1  UNL1        0.0191
      9 C          61.2716   87.8156    9.6011 C.ar    1  UNL1        0.0835
     10 C          62.5312   83.8280   12.3716 C.ar    1  UNL1        0.1512
     11 C          62.0743   85.2535   12.4677 C.ar    1  UNL1        0.0619
     12 C          62.3398   85.9155   11.1482 C.ar    1  UNL1        0.0987
     13 S          62.9608   84.8992   10.2364 S.2     1  UNL1       -0.0618
     14 C          63.0791   83.6091   10.9924 C.ar    1  UNL1        0.1178
     15 C          63.6458   82.3253   10.4624 C.2     1  UNL1        0.2518
     16 N          62.9885   81.0197   10.7992 N.am    1  UNL1       -0.3248
     17 O          64.8699   82.3471    9.5957 O.2     1  UNL1       -0.2697
     18 H          62.1852   81.0054   11.3681 H       1  UNL1        0.1453
     19 H          63.3605   80.1772   10.4514 H       1  UNL1        0.1453
     20 O          62.4538   82.8018   13.4628 O.3     1  UNL1       -0.4740
     21 C          64.0285   81.8423   15.2930 C.3     1  UNL1        0.0523
     22 C          63.2440   82.9873   14.7242 C.3     1  UNL1        0.1891
     23 C          63.2497   84.3178   15.4168 C.ar    1  UNL1        0.0278
     24 C          62.1494   84.6700   16.3736 C.ar    1  UNL1        0.0000
     25 C          62.1551   86.0005   17.0662 C.ar    1  UNL1       -0.0002
     26 C          63.2610   86.9788   16.8021 C.ar    1  UNL1        0.0008
     27 C          64.3612   86.6267   15.8453 C.ar    1  UNL1        0.0112
     28 C          64.3556   85.2961   15.1526 C.ar    1  UNL1        0.0570
     29 CL         65.4558   84.9440   14.1959 Cl      1  UNL1       -0.0825
     30 C          59.1385   90.0887    6.3557 C.ar    1  UNL1        0.0397
     31 C          57.6537   90.1481    6.1507 C.ar    1  UNL1        0.1216
     32 N          57.3850   91.0161    4.9572 N.ar    1  UNL1       -0.1676
     33 N          58.7036   91.4932    4.4246 N.ar    1  UNL1       -0.2480
     34 C          59.7873   90.9200    5.2889 C.ar    1  UNL1        0.0967
     35 C          58.9035   92.3865    3.2364 C.3     1  UNL1        0.1448
     36 C          60.2310   93.0469    3.0094 C.3     1  UNL1        0.0988
     37 N          60.7990   93.1323    1.6237 N.3     1  UNL1       -0.2686
     38 C          59.9284   92.8424    0.4371 C.3     1  UNL1        0.0897
     39 C          60.4964   92.9277   -0.9486 C.3     1  UNL1        0.0897
     40 N          61.9350   93.3031   -1.1476 N.3     1  UNL1       -0.2691
     41 C          62.5029   93.3885   -2.5334 C.3     1  UNL1        0.0897
     42 C          62.8056   93.5930    0.0390 C.3     1  UNL1        0.0897
     43 C          62.2376   93.5076    1.4246 C.3     1  UNL1        0.0897
@<TRIPOS>BOND
     1    22    21    1
     2    22    20    1
     3    20    10    1
     4    10    11   ar
     5    11    12   ar
     6    12     1    1
     7     1     2   ar
     8     2     3   ar
     9     3     4   ar
    10     4     5   ar
    11     5     6   ar
    12     6    30    1
    13    30    31   ar
    14    31    32   ar
    15    32    33   ar
    16    33    35    1
    17    35    36    1
    18    36    37    1
    19    37    38    1
    20    38    39    1
    21    39    40    1
    22    40    41    1
    23    40    42    1
    24    42    43    1
    25    33    34   ar
    26     6     7   ar
    27     7     8   ar
    28     8     9   ar
    29    12    13   ar
    30    13    14   ar
    31    14    15    1
    32    15    16   am
    33    15    17    2
    34    22    23    1
    35    23    24   ar
    36    24    25   ar
    37    25    26   ar
    38    26    27   ar
    39    27    28   ar
    40    28    29    1
    41    14    10   ar
    42    28    23   ar
    43     9     1   ar
    44     9     4   ar
    45    34    30   ar
    46    43    37    1
    47    16    18    1
    48    16    19    1
@<TRIPOS>MOLECULE
*****
 43 48 0 0 0
SMALL
GASTEIGER

@<TRIPOS>ATOM
      1 N          64.3546   90.5673   15.6866 N.ar    1  UNL1       -0.2823
      2 C          63.2197   90.9064   16.6068 C.ar    1  UNL1        0.1831
      3 N          62.4574   89.6452   16.8868 N.ar    1  UNL1       -0.2236
      4 C          63.1212   88.5267   16.1396 C.ar    1  UNL1        0.0991
      5 C          62.8094   87.0629   16.0389 C.ar    1  UNL1        0.0207
      6 C          63.6703   86.1691   15.1963 C.ar    1  UNL1        0.0046
      7 C          64.8429   86.7390   14.4546 C.ar    1  UNL1        0.0017
      8 C          65.1547   88.2027   14.5553 C.ar    1  UNL1        0.0191
      9 C          64.2938   89.0966   15.3978 C.ar    1  UNL1        0.0835
     10 C          66.5266   93.0985   13.7014 C.ar    1  UNL1        0.1512
     11 C          65.3052   92.2370   13.8283 C.ar    1  UNL1        0.0619
     12 C          65.3719   91.5299   15.1494 C.ar    1  UNL1        0.0987
     13 S          66.6345   91.9543   15.8391 S.2     1  UNL1       -0.0618
     14 C          67.3481   92.9238   14.9442 C.ar    1  UNL1        0.1178
     15 C          68.6541   93.5999   15.2402 C.2     1  UNL1        0.2518
     16 N          69.9245   93.0713   14.6431 N.am    1  UNL1       -0.3248
     17 O          68.6895   94.8046   16.1332 O.2     1  UNL1       -0.2697
     18 H          69.9013   92.2807   14.0570 H       1  UNL1        0.1453
     19 H          70.7816   93.5151   14.8373 H       1  UNL1        0.1453
     20 O          66.8667   93.9799   12.5364 O.3     1  UNL1       -0.4740
     21 C          65.7073   92.3351   10.8931 C.3     1  UNL1        0.0523
     22 C          66.2974   93.6839   11.1806 C.3     1  UNL1        0.1891
     23 C          66.3182   94.7365   10.1122 C.ar    1  UNL1        0.0278
     24 C          65.2627   95.8021   10.0885 C.ar    1  UNL1        0.0000
     25 C          65.2836   96.8548    9.0201 C.ar    1  UNL1       -0.0002
     26 C          66.3599   96.8419    7.9755 C.ar    1  UNL1        0.0008
     27 C          67.4154   95.7765    7.9992 C.ar    1  UNL1        0.0112
     28 C          67.3946   94.7237    9.0676 C.ar    1  UNL1        0.0570
     29 CL         68.4500   93.6582    9.0912 Cl      1  UNL1       -0.0825
     30 C          63.3585   84.7052   15.0956 C.ar    1  UNL1        0.0397
     31 C          62.3967   83.9470   15.9614 C.ar    1  UNL1        0.1216
     32 N          62.3976   82.5158   15.5122 N.ar    1  UNL1       -0.1676
     33 N          63.3602   82.3896   14.3686 N.ar    1  UNL1       -0.2480
     34 C          63.9540   83.7427   14.1112 C.ar    1  UNL1        0.0967
     35 C          63.6737   81.1312   13.6149 C.3     1  UNL1        0.1448
     36 C          63.4262   81.0606   12.1372 C.3     1  UNL1        0.0988
     37 N          63.2471   82.3222   11.3457 N.3     1  UNL1       -0.2686
     38 C          64.0892   82.5705   10.1295 C.3     1  UNL1        0.0897
     39 C          63.9100   83.8320    9.3380 C.3     1  UNL1        0.0897
     40 N          62.8888   84.8452    9.7628 N.3     1  UNL1       -0.2691
     41 C          62.7096   86.1068    8.9713 C.3     1  UNL1        0.0897
     42 C          62.0467   84.5969   10.9790 C.3     1  UNL1        0.0897
     43 C          62.2258   83.3354   11.7705 C.3     1  UNL1        0.0897
@<TRIPOS>BOND
     1    22    21    1
     2    22    20    1
     3    20    10    1
     4    10    11   ar
     5    11    12   ar
     6    12     1    1
     7     1     2   ar
     8     2     3   ar
     9     3     4   ar
    10     4     5   ar
    11     5     6   ar
    12     6    30    1
    13    30    31   ar
    14    31    32   ar
    15    32    33   ar
    16    33    35    1
    17    35    36    1
    18    36    37    1
    19    37    38    1
    20    38    39    1
    21    39    40    1
    22    40    41    1
    23    40    42    1
    24    42    43    1
    25    33    34   ar
    26     6     7   ar
    27     7     8   ar
    28     8     9   ar
    29    12    13   ar
    30    13    14   ar
    31    14    15    1
    32    15    16   am
    33    15    17    2
    34    22    23    1
    35    23    24   ar
    36    24    25   ar
    37    25    26   ar
    38    26    27   ar
    39    27    28   ar
    40    28    29    1
    41    14    10   ar
    42    28    23   ar
    43     9     1   ar
    44     9     4   ar
    45    34    30   ar
    46    43    37    1
    47    16    18    1
    48    16    19    1
@<TRIPOS>MOLECULE
*****
 43 48 0 0 0
SMALL
GASTEIGER

@<TRIPOS>ATOM
      1 N          62.5937   86.2980   11.2839 N.ar    1  UNL1       -0.2823
      2 C          62.8462   85.1017   12.1528 C.ar    1  UNL1        0.1831
      3 N          63.4110   85.5859   13.4553 N.ar    1  UNL1       -0.2236
      4 C          63.5075   87.0814   13.3914 C.ar    1  UNL1        0.0991
      5 C          63.9901   88.0993   14.3818 C.ar    1  UNL1        0.0207
      6 C          63.9676   89.5573   14.0301 C.ar    1  UNL1        0.0046
      7 C          63.4624   89.9974   12.6881 C.ar    1  UNL1        0.0017
      8 C          62.9798   88.9795   11.6977 C.ar    1  UNL1        0.0191
      9 C          63.0024   87.5215   12.0493 C.ar    1  UNL1        0.0835
     10 C          60.8187   86.8915    7.8834 C.ar    1  UNL1        0.1512
     11 C          61.1395   87.3166    9.2857 C.ar    1  UNL1        0.0619
     12 C          62.0312   86.2748    9.8935 C.ar    1  UNL1        0.0987
     13 S          62.2617   85.2058    8.8669 S.2     1  UNL1       -0.0618
     14 C          61.5124   85.5869    7.6246 C.ar    1  UNL1        0.1178
     15 C          61.4650   84.8012    6.3476 C.2     1  UNL1        0.2518
     16 N          62.6908   84.6884    5.4905 N.am    1  UNL1       -0.3248
     17 O          60.1917   84.1285    5.9277 O.2     1  UNL1       -0.2697
     18 H          63.5265   85.1299    5.7661 H       1  UNL1        0.1453
     19 H          62.6597   84.1728    4.6524 H       1  UNL1        0.1453
     20 O          59.9561   87.6395    6.9108 O.3     1  UNL1       -0.4740
     21 C          59.2031   89.4871    8.5750 C.3     1  UNL1        0.0523
     22 C          59.5785   89.0650    7.1854 C.3     1  UNL1        0.1891
     23 C          59.5763   90.0684    6.0704 C.ar    1  UNL1        0.0278
     24 C          60.8742   90.5619    5.5030 C.ar    1  UNL1        0.0000
     25 C          60.8720   91.5653    4.3880 C.ar    1  UNL1       -0.0002
     26 C          59.5719   92.0751    3.8404 C.ar    1  UNL1        0.0008
     27 C          58.2741   91.5816    4.4078 C.ar    1  UNL1        0.0112
     28 C          58.2762   90.5782    5.5229 C.ar    1  UNL1        0.0570
     29 CL         56.9784   90.0847    6.0902 Cl      1  UNL1       -0.0825
     30 C          64.4502   90.5753   15.0206 C.ar    1  UNL1        0.0397
     31 C          63.6558   91.1436   16.1589 C.ar    1  UNL1        0.1216
     32 N          64.5266   92.1232   16.8884 N.ar    1  UNL1       -0.1676
     33 N          65.8593   92.1603   16.2008 N.ar    1  UNL1       -0.2480
     34 C          65.8120   91.2036   15.0465 C.ar    1  UNL1        0.0967
     35 C          67.0330   93.0056   16.5979 C.3     1  UNL1        0.1448
     36 C          68.0399   93.4224   15.5672 C.3     1  UNL1        0.0988
     37 N          67.7249   93.2745   14.1082 N.3     1  UNL1       -0.2686
     38 C          68.4347   92.2375   13.2891 C.3     1  UNL1        0.0897
     39 C          68.1197   92.0895   11.8300 C.3     1  UNL1        0.0897
     40 N          67.0949   92.9785   11.1901 N.3     1  UNL1       -0.2691
     41 C          66.7798   92.8304    9.7310 C.3     1  UNL1        0.0897
     42 C          66.3850   94.0154   12.0092 C.3     1  UNL1        0.0897
     43 C          66.7001   94.1634   13.4682 C.3     1  UNL1        0.0897
@<TRIPOS>BOND
     1    22    21    1
     2    22    20    1
     3    20    10    1
     4    10    11   ar
     5    11    12   ar
     6    12     1    1
     7     1     2   ar
     8     2     3   ar
     9     3     4   ar
    10     4     5   ar
    11     5     6   ar
    12     6    30    1
    13    30    31   ar
    14    31    32   ar
    15    32    33   ar
    16    33    35    1
    17    35    36    1
    18    36    37    1
    19    37    38    1
    20    38    39    1
    21    39    40    1
    22    40    41    1
    23    40    42    1
    24    42    43    1
    25    33    34   ar
    26     6     7   ar
    27     7     8   ar
    28     8     9   ar
    29    12    13   ar
    30    13    14   ar
    31    14    15    1
    32    15    16   am
    33    15    17    2
    34    22    23    1
    35    23    24   ar
    36    24    25   ar
    37    25    26   ar
    38    26    27   ar
    39    27    28   ar
    40    28    29    1
    41    14    10   ar
    42    28    23   ar
    43     9     1   ar
    44     9     4   ar
    45    34    30   ar
    46    43    37    1
    47    16    18    1
    48    16    19    1
@<TRIPOS>MOLECULE
*****
 43 48 0 0 0
SMALL
GASTEIGER

@<TRIPOS>ATOM
      1 N          58.7779   92.2777    3.4921 N.ar    1  UNL1       -0.2823
      2 C          57.2906   92.3741    3.6618 C.ar    1  UNL1        0.1831
      3 N          56.8998   91.5107    4.8245 N.ar    1  UNL1       -0.2236
      4 C          58.1455   90.8807    5.3734 C.ar    1  UNL1        0.0991
      5 C          58.3728   89.9366    6.5166 C.ar    1  UNL1        0.0207
      6 C          59.7608   89.4665    6.8364 C.ar    1  UNL1        0.0046
      7 C          60.9215   89.9405    6.0129 C.ar    1  UNL1        0.0017
      8 C          60.6942   90.8845    4.8697 C.ar    1  UNL1        0.0191
      9 C          59.3062   91.3546    4.5499 C.ar    1  UNL1        0.0835
     10 C          61.3876   94.1895    1.3474 C.ar    1  UNL1        0.1512
     11 C          60.9446   93.5992    2.6533 C.ar    1  UNL1        0.0619
     12 C          59.5936   92.9807    2.4480 C.ar    1  UNL1        0.0987
     13 S          59.2014   93.1888    1.0152 S.2     1  UNL1       -0.0618
     14 C          60.3102   93.9359    0.3350 C.ar    1  UNL1        0.1178
     15 C          60.3368   94.3556   -1.1049 C.2     1  UNL1        0.2518
     16 N          59.9649   93.3764   -2.1786 N.am    1  UNL1       -0.3248
     17 O          60.7354   95.7546   -1.4711 O.2     1  UNL1       -0.2697
     18 H          59.7033   92.4582   -1.9383 H       1  UNL1        0.1453
     19 H          59.9824   93.6519   -3.1236 H       1  UNL1        0.1453
     20 O          62.6807   94.9073    1.0977 O.3     1  UNL1       -0.4740
     21 C          64.6364   93.1987    1.1734 C.3     1  UNL1        0.0523
     22 C          63.8129   94.1979    0.4161 C.3     1  UNL1        0.1891
     23 C          64.1216   94.4876   -1.0229 C.ar    1  UNL1        0.0278
     24 C          63.6899   93.5268   -2.0908 C.ar    1  UNL1        0.0000
     25 C          63.9987   93.8165   -3.5298 C.ar    1  UNL1       -0.0002
     26 C          64.7391   95.0671   -3.9009 C.ar    1  UNL1        0.0008
     27 C          65.1709   96.0279   -2.8331 C.ar    1  UNL1        0.0112
     28 C          64.8621   95.7382   -1.3940 C.ar    1  UNL1        0.0570
     29 CL         65.2938   96.6990   -0.3262 Cl      1  UNL1       -0.0825
     30 C          59.9882   88.5223    7.9796 C.ar    1  UNL1        0.0397
     31 C          59.6339   87.0650    8.0034 C.ar    1  UNL1        0.1216
     32 N          60.0365   86.5118    9.3383 N.ar    1  UNL1       -0.1676
     33 N          60.6396   87.6273   10.1396 N.ar    1  UNL1       -0.2480
     34 C          60.6097   88.8699    9.2998 C.ar    1  UNL1        0.0967
     35 C          61.1781   87.5192   11.5354 C.3     1  UNL1        0.1448
     36 C          62.5954   87.0831   11.7608 C.3     1  UNL1        0.0988
     37 N          62.8863   85.6828   12.2130 N.3     1  UNL1       -0.2686
     38 C          63.6135   85.4473   13.5036 C.3     1  UNL1        0.0897
     39 C          63.9044   84.0469   13.9559 C.3     1  UNL1        0.0897
     40 N          63.4680   82.8822   13.1175 N.3     1  UNL1       -0.2691
     41 C          63.7589   81.4818   13.5698 C.3     1  UNL1        0.0897
     42 C          62.7408   83.1177   11.8269 C.3     1  UNL1        0.0897
     43 C          62.4499   84.5179   11.3747 C.3     1  UNL1        0.0897
@<TRIPOS>BOND
     1    22    21    1
     2    22    20    1
     3    20    10    1
     4    10    11   ar
     5    11    12   ar
     6    12     1    1
     7     1     2   ar
     8     2     3   ar
     9     3     4   ar
    10     4     5   ar
    11     5     6   ar
    12     6    30    1
    13    30    31   ar
    14    31    32   ar
    15    32    33   ar
    16    33    35    1
    17    35    36    1
    18    36    37    1
    19    37    38    1
    20    38    39    1
    21    39    40    1
    22    40    41    1
    23    40    42    1
    24    42    43    1
    25    33    34   ar
    26     6     7   ar
    27     7     8   ar
    28     8     9   ar
    29    12    13   ar
    30    13    14   ar
    31    14    15    1
    32    15    16   am
    33    15    17    2
    34    22    23    1
    35    23    24   ar
    36    24    25   ar
    37    25    26   ar
    38    26    27   ar
    39    27    28   ar
    40    28    29    1
    41    14    10   ar
    42    28    23   ar
    43     9     1   ar
    44     9     4   ar
    45    34    30   ar
    46    43    37    1
    47    16    18    1
    48    16    19    1
@<TRIPOS>MOLECULE
*****
 43 48 0 0 0
SMALL
GASTEIGER

@<TRIPOS>ATOM
      1 N          58.6454   92.1642    3.7114 N.ar    1  UNL1       -0.2823
      2 C          57.1738   92.2856    3.9751 C.ar    1  UNL1        0.1831
      3 N          56.8366   91.3994    5.1374 N.ar    1  UNL1       -0.2236
      4 C          58.0998   90.7303    5.5920 C.ar    1  UNL1        0.0991
      5 C          58.3765   89.7517    6.6946 C.ar    1  UNL1        0.0207
      6 C          59.7711   89.2458    6.9158 C.ar    1  UNL1        0.0046
      7 C          60.8890   89.7184    6.0345 C.ar    1  UNL1        0.0017
      8 C          60.6123   90.6970    4.9319 C.ar    1  UNL1        0.0191
      9 C          59.2177   91.2030    4.7106 C.ar    1  UNL1        0.0835
     10 C          60.0265   93.8544    0.5017 C.ar    1  UNL1        0.1512
     11 C          58.9521   93.0986    1.2258 C.ar    1  UNL1        0.0619
     12 C          59.4105   92.8786    2.6370 C.ar    1  UNL1        0.0987
     13 S          60.7684   93.4984    2.7851 S.2     1  UNL1       -0.0618
     14 C          61.1491   94.1015    1.4655 C.ar    1  UNL1        0.1178
     15 C          62.4280   94.8247    1.1628 C.2     1  UNL1        0.2518
     16 N          62.4826   95.8114    0.0344 N.am    1  UNL1       -0.3248
     17 O          63.6522   94.5612    1.9886 O.2     1  UNL1       -0.2697
     18 H          61.6792   95.9843   -0.5076 H       1  UNL1        0.1453
     19 H          63.3220   96.2860   -0.1643 H       1  UNL1        0.1453
     20 O          59.9857   94.2871   -0.9338 O.3     1  UNL1       -0.4740
     21 C          58.1407   96.0190   -1.5223 C.3     1  UNL1        0.0523
     22 C          58.6733   94.6179   -1.5804 C.3     1  UNL1        0.1891
     23 C          57.8934   93.5477   -2.2850 C.ar    1  UNL1        0.0278
     24 C          56.8102   92.8073   -1.5581 C.ar    1  UNL1        0.0000
     25 C          56.0304   91.7371   -2.2627 C.ar    1  UNL1       -0.0002
     26 C          56.3337   91.4073   -3.6942 C.ar    1  UNL1        0.0008
     27 C          57.4169   92.1477   -4.4211 C.ar    1  UNL1        0.0112
     28 C          58.1968   93.2180   -3.7165 C.ar    1  UNL1        0.0570
     29 CL         59.2799   93.9584   -4.4434 Cl      1  UNL1       -0.0825
     30 C          60.0478   88.2671    8.0184 C.ar    1  UNL1        0.0397
     31 C          59.7718   86.7933    7.9791 C.ar    1  UNL1        0.1216
     32 N          60.2026   86.2058    9.2903 N.ar    1  UNL1       -0.1676
     33 N          60.7449   87.3167   10.1401 N.ar    1  UNL1       -0.2480
     34 C          60.6492   88.5906    9.3540 C.ar    1  UNL1        0.0967
     35 C          61.2875   87.1779   11.5316 C.3     1  UNL1        0.1448
     36 C          62.6397   86.5670   11.7518 C.3     1  UNL1        0.0988
     37 N          62.7547   85.1324   12.1745 N.3     1  UNL1       -0.2686
     38 C          62.7151   84.7742   13.6306 C.3     1  UNL1        0.0897
     39 C          62.8301   83.3395   14.0534 C.3     1  UNL1        0.0897
     40 N          62.9848   82.2633   13.0200 N.3     1  UNL1       -0.2691
     41 C          63.0998   80.8286   13.4428 C.3     1  UNL1        0.0897
     42 C          63.0244   82.6216   11.5639 C.3     1  UNL1        0.0897
     43 C          62.9094   84.0561   11.1412 C.3     1  UNL1        0.0897
@<TRIPOS>BOND
     1    22    21    1
     2    22    20    1
     3    20    10    1
     4    10    11   ar
     5    11    12   ar
     6    12     1    1
     7     1     2   ar
     8     2     3   ar
     9     3     4   ar
    10     4     5   ar
    11     5     6   ar
    12     6    30    1
    13    30    31   ar
    14    31    32   ar
    15    32    33   ar
    16    33    35    1
    17    35    36    1
    18    36    37    1
    19    37    38    1
    20    38    39    1
    21    39    40    1
    22    40    41    1
    23    40    42    1
    24    42    43    1
    25    33    34   ar
    26     6     7   ar
    27     7     8   ar
    28     8     9   ar
    29    12    13   ar
    30    13    14   ar
    31    14    15    1
    32    15    16   am
    33    15    17    2
    34    22    23    1
    35    23    24   ar
    36    24    25   ar
    37    25    26   ar
    38    26    27   ar
    39    27    28   ar
    40    28    29    1
    41    14    10   ar
    42    28    23   ar
    43     9     1   ar
    44     9     4   ar
    45    34    30   ar
    46    43    37    1
    47    16    18    1
    48    16    19    1
@<TRIPOS>MOLECULE
*****
 43 48 0 0 0
SMALL
GASTEIGER

@<TRIPOS>ATOM
      1 N          58.6750   92.2215    3.6398 N.ar    1  UNL1       -0.2823
      2 C          57.1991   92.3382    3.8806 C.ar    1  UNL1        0.1831
      3 N          56.8474   91.4546    5.0405 N.ar    1  UNL1       -0.2236
      4 C          58.1059   90.7918    5.5167 C.ar    1  UNL1        0.0991
      5 C          58.3693   89.8179    6.6267 C.ar    1  UNL1        0.0207
      6 C          59.7622   89.3180    6.8710 C.ar    1  UNL1        0.0046
      7 C          60.8918   89.7920    6.0053 C.ar    1  UNL1        0.0017
      8 C          60.6284   90.7658    4.8953 C.ar    1  UNL1        0.0191
      9 C          59.2355   91.2658    4.6510 C.ar    1  UNL1        0.0835
     10 C          61.1922   94.1866    1.4335 C.ar    1  UNL1        0.1512
     11 C          60.7852   93.6025    2.7538 C.ar    1  UNL1        0.0619
     12 C          59.4538   92.9352    2.5749 C.ar    1  UNL1        0.0987
     13 S          59.0379   93.1068    1.1439 S.2     1  UNL1       -0.0618
     14 C          60.1122   93.8802    0.4386 C.ar    1  UNL1        0.1178
     15 C          60.1075   94.2776   -1.0079 C.2     1  UNL1        0.2518
     16 N          60.6703   95.6045   -1.4231 N.am    1  UNL1       -0.3248
     17 O          59.5399   93.3479   -2.0392 O.2     1  UNL1       -0.2697
     18 H          61.0428   96.2147   -0.7462 H       1  UNL1        0.1453
     19 H          60.6672   95.8653   -2.3724 H       1  UNL1        0.1453
     20 O          62.4569   94.9440    1.1568 O.3     1  UNL1       -0.4740
     21 C          64.4379   93.2761    1.3664 C.3     1  UNL1        0.0523
     22 C          63.6337   94.2415    0.5471 C.3     1  UNL1        0.1891
     23 C          64.0063   94.5045   -0.8819 C.ar    1  UNL1        0.0278
     24 C          63.6147   93.5280   -1.9510 C.ar    1  UNL1        0.0000
     25 C          63.9872   93.7910   -3.3800 C.ar    1  UNL1       -0.0002
     26 C          64.7515   95.0305   -3.7399 C.ar    1  UNL1        0.0008
     27 C          65.1431   96.0070   -2.6708 C.ar    1  UNL1        0.0112
     28 C          64.7705   95.7441   -1.2418 C.ar    1  UNL1        0.0570
     29 CL         65.1621   96.7206   -0.1727 Cl      1  UNL1       -0.0825
     30 C          60.0257   88.3441    7.9811 C.ar    1  UNL1        0.0397
     31 C          59.8404   86.8572    7.9119 C.ar    1  UNL1        0.1216
     32 N          60.2209   86.2803    9.2432 N.ar    1  UNL1       -0.1676
     33 N          60.6413   87.4107   10.1352 N.ar    1  UNL1       -0.2480
     34 C          60.5206   88.6861    9.3551 C.ar    1  UNL1        0.0967
     35 C          61.1015   87.2872   11.5575 C.3     1  UNL1        0.1448
     36 C          62.5673   87.2165   11.8680 C.3     1  UNL1        0.0988
     37 N          63.2386   88.3530   12.5805 N.3     1  UNL1       -0.2686
     38 C          63.1666   89.7402   12.0144 C.3     1  UNL1        0.0897
     39 C          63.8380   90.8768   12.7269 C.3     1  UNL1        0.0897
     40 N          64.5813   90.6260   14.0054 N.3     1  UNL1       -0.2691
     41 C          65.2526   91.7626   14.7179 C.3     1  UNL1        0.0897
     42 C          64.6533   89.2388   14.5715 C.3     1  UNL1        0.0897
     43 C          63.9820   88.1023   13.8590 C.3     1  UNL1        0.0897
@<TRIPOS>BOND
     1    22    21    1
     2    22    20    1
     3    20    10    1
     4    10    11   ar
     5    11    12   ar
     6    12     1    1
     7     1     2   ar
     8     2     3   ar
     9     3     4   ar
    10     4     5   ar
    11     5     6   ar
    12     6    30    1
    13    30    31   ar
    14    31    32   ar
    15    32    33   ar
    16    33    35    1
    17    35    36    1
    18    36    37    1
    19    37    38    1
    20    38    39    1
    21    39    40    1
    22    40    41    1
    23    40    42    1
    24    42    43    1
    25    33    34   ar
    26     6     7   ar
    27     7     8   ar
    28     8     9   ar
    29    12    13   ar
    30    13    14   ar
    31    14    15    1
    32    15    16   am
    33    15    17    2
    34    22    23    1
    35    23    24   ar
    36    24    25   ar
    37    25    26   ar
    38    26    27   ar
    39    27    28   ar
    40    28    29    1
    41    14    10   ar
    42    28    23   ar
    43     9     1   ar
    44     9     4   ar
    45    34    30   ar
    46    43    37    1
    47    16    18    1
    48    16    19    1
@<TRIPOS>MOLECULE
*****
 43 48 0 0 0
SMALL
GASTEIGER

@<TRIPOS>ATOM
      1 N          58.9734   92.3611    3.4258 N.ar    1  UNL1       -0.2823
      2 C          57.4947   92.5623    3.5771 C.ar    1  UNL1        0.1831
      3 N          57.0343   91.7507    4.7515 N.ar    1  UNL1       -0.2236
      4 C          58.2284   91.0480    5.3261 C.ar    1  UNL1        0.0991
      5 C          58.3793   90.1133    6.4895 C.ar    1  UNL1        0.0207
      6 C          59.7286   89.5558    6.8336 C.ar    1  UNL1        0.0046
      7 C          60.9271   89.9331    6.0143 C.ar    1  UNL1        0.0017
      8 C          60.7763   90.8678    4.8509 C.ar    1  UNL1        0.0191
      9 C          59.4269   91.4252    4.5068 C.ar    1  UNL1        0.0835
     10 C          60.5777   94.1775    0.3939 C.ar    1  UNL1        0.1512
     11 C          59.3711   93.7250    1.1616 C.ar    1  UNL1        0.0619
     12 C          59.8456   92.9861    2.3776 C.ar    1  UNL1        0.0987
     13 S          61.3455   92.9818    2.3615 S.2     1  UNL1       -0.0618
     14 C          61.7980   93.7181    1.1355 C.ar    1  UNL1        0.1178
     15 C          63.2210   93.9537    0.7234 C.2     1  UNL1        0.2518
     16 N          63.5458   95.0300   -0.2696 N.am    1  UNL1       -0.3248
     17 O          64.3190   93.1130    1.3043 O.2     1  UNL1       -0.2697
     18 H          62.8251   95.5818   -0.6509 H       1  UNL1        0.1453
     19 H          64.4797   95.1846   -0.5401 H       1  UNL1        0.1453
     20 O          60.5661   94.9531   -0.8899 O.3     1  UNL1       -0.4740
     21 C          60.6331   94.1984   -3.3751 C.3     1  UNL1        0.0523
     22 C          59.8726   94.3948   -2.0972 C.3     1  UNL1        0.1891
     23 C          58.4186   94.0330   -2.0265 C.ar    1  UNL1        0.0278
     24 C          57.9921   92.6047   -2.1942 C.ar    1  UNL1        0.0000
     25 C          56.5381   92.2429   -2.1235 C.ar    1  UNL1       -0.0002
     26 C          55.5106   93.3094   -1.8851 C.ar    1  UNL1        0.0008
     27 C          55.9371   94.7376   -1.7174 C.ar    1  UNL1        0.0112
     28 C          57.3911   95.0995   -1.7881 C.ar    1  UNL1        0.0570
     29 CL         57.8175   96.5277   -1.6204 Cl      1  UNL1       -0.0825
     30 C          59.8796   88.6211    7.9971 C.ar    1  UNL1        0.0397
     31 C          59.3428   87.2229    8.0802 C.ar    1  UNL1        0.1216
     32 N          59.7253   86.6582    9.4161 N.ar    1  UNL1       -0.1676
     33 N          60.4984   87.7074   10.1588 N.ar    1  UNL1       -0.2480
     34 C          60.5937   88.9206    9.2817 C.ar    1  UNL1        0.0967
     35 C          61.0749   87.5680   11.5365 C.3     1  UNL1        0.1448
     36 C          62.5051   87.1513   11.7123 C.3     1  UNL1        0.0988
     37 N          62.8304   85.7579   12.1625 N.3     1  UNL1       -0.2686
     38 C          62.4198   84.5839   11.3240 C.3     1  UNL1        0.0897
     39 C          62.7451   83.1904   11.7742 C.3     1  UNL1        0.0897
     40 N          63.4809   82.9712   13.0628 N.3     1  UNL1       -0.2691
     41 C          63.8062   81.5777   13.5129 C.3     1  UNL1        0.0897
     42 C          63.8915   84.1452   13.9012 C.3     1  UNL1        0.0897
     43 C          63.5662   85.5386   13.4511 C.3     1  UNL1        0.0897
@<TRIPOS>BOND
     1    22    21    1
     2    22    20    1
     3    20    10    1
     4    10    11   ar
     5    11    12   ar
     6    12     1    1
     7     1     2   ar
     8     2     3   ar
     9     3     4   ar
    10     4     5   ar
    11     5     6   ar
    12     6    30    1
    13    30    31   ar
    14    31    32   ar
    15    32    33   ar
    16    33    35    1
    17    35    36    1
    18    36    37    1
    19    37    38    1
    20    38    39    1
    21    39    40    1
    22    40    41    1
    23    40    42    1
    24    42    43    1
    25    33    34   ar
    26     6     7   ar
    27     7     8   ar
    28     8     9   ar
    29    12    13   ar
    30    13    14   ar
    31    14    15    1
    32    15    16   am
    33    15    17    2
    34    22    23    1
    35    23    24   ar
    36    24    25   ar
    37    25    26   ar
    38    26    27   ar
    39    27    28   ar
    40    28    29    1
    41    14    10   ar
    42    28    23   ar
    43     9     1   ar
    44     9     4   ar
    45    34    30   ar
    46    43    37    1
    47    16    18    1
    48    16    19    1
