@<TRIPOS>MOLECULE
*****
 40 45 0 0 0
SMALL
GASTEIGER

@<TRIPOS>ATOM
      1 N          63.8401   85.5518   15.5741 N.3     1  UNL1       -0.2672
      2 C          63.0975   86.0312   16.7861 C.3     1  UNL1        0.0898
      3 C          62.9205   87.5016   17.0242 C.3     1  UNL1        0.0899
      4 N          63.4862   88.4925   16.0504 N.3     1  UNL1       -0.2665
      5 C          64.2288   88.0130   14.8386 C.3     1  UNL1        0.0899
      6 C          64.4057   86.5427   14.6004 C.3     1  UNL1        0.0898
      7 C          64.0170   84.0814   15.3360 C.3     1  UNL1        0.1201
      8 C          62.8824   83.1368   15.6014 C.3     1  UNL1        0.2226
      9 O          61.8859   82.8391   14.5205 O.3     1  UNL1       -0.4739
     10 C          63.3572   85.6237    8.4105 C.3     1  UNL1        0.0521
     11 C          63.1023   84.7697    9.6171 C.ar    1  UNL1        0.0593
     12 C          62.6505   85.4008   10.9007 C.ar    1  UNL1        0.0148
     13 C          62.3956   84.5469   12.1073 C.ar    1  UNL1        0.0057
     14 C          62.5926   83.0619   12.0303 C.ar    1  UNL1        0.0516
     15 C          62.3378   82.2080   13.2369 C.ar    1  UNL1        0.1400
     16 C          62.5348   80.7230   13.1600 C.ar    1  UNL1        0.0370
     17 C          62.9867   80.0919   11.8764 C.ar    1  UNL1        0.0047
     18 C          63.2416   80.9458   10.6698 C.ar    1  UNL1        0.0193
     19 C          63.0445   82.4308   10.7468 C.ar    1  UNL1        0.0838
     20 N          63.2994   83.2848    9.5402 N.ar    1  UNL1       -0.2496
     21 C          63.3093   89.9629   16.2886 C.3     1  UNL1        0.0993
     22 C          64.1958   90.9484   15.5864 C.ar    1  UNL1       -0.0047
     23 C          65.1109   91.8326   16.3806 C.ar    1  UNL1        0.0003
     24 C          65.9973   92.8181   15.6785 C.ar    1  UNL1        0.0379
     25 C          65.9688   92.9193   14.1822 C.ar    1  UNL1        0.1528
     26 C          65.0537   92.0350   13.3880 C.ar    1  UNL1        0.0878
     27 C          64.1673   91.0496   14.0901 C.ar    1  UNL1        0.0151
     28 N          65.0252   92.1362   11.8917 N.am    1  UNL1       -0.2526
     29 C          65.9117   93.1217   11.1896 C.2     1  UNL1        0.2740
     30 O          65.8831   93.2229    9.6933 O.2     1  UNL1       -0.2705
     31 C          66.8268   94.0060   11.9838 C.3     1  UNL1        0.2900
     32 O          66.8553   93.9048   13.4801 O.3     1  UNL1       -0.4643
     33 C          64.1101   91.2520   11.0975 C.3     1  UNL1        0.1031
     34 C          62.6258   91.3375   11.2960 C.3     1  UNL1        0.0482
     35 C          61.7534   90.1692   10.9434 C.ar    1  UNL1       -0.0205
     36 C          60.6516   89.7493   11.8706 C.ar    1  UNL1       -0.0042
     37 C          59.7792   88.5811   11.5181 C.ar    1  UNL1       -0.0003
     38 C          60.0087   87.8328   10.2384 C.ar    1  UNL1       -0.0000
     39 C          61.1106   88.2527    9.3113 C.ar    1  UNL1       -0.0003
     40 C          61.9830   89.4210    9.6638 C.ar    1  UNL1       -0.0042
@<TRIPOS>BOND
     1    10    11    1
     2    11    12   ar
     3    12    13   ar
     4    13    14   ar
     5    14    15   ar
     6    15     9    1
     7     9     8    1
     8     8     7    1
     9     7     1    1
    10     1     2    1
    11     2     3    1
    12     3     4    1
    13     4    21    1
    14    21    22    1
    15    22    23   ar
    16    23    24   ar
    17    24    25   ar
    18    25    26   ar
    19    26    27   ar
    20    26    28    1
    21    28    33    1
    22    33    34    1
    23    34    35    1
    24    35    36   ar
    25    36    37   ar
    26    37    38   ar
    27    38    39   ar
    28    39    40   ar
    29    28    29   am
    30    29    30    2
    31    29    31    1
    32    31    32    1
    33     4     5    1
    34     5     6    1
    35    15    16   ar
    36    16    17   ar
    37    17    18   ar
    38    18    19   ar
    39    19    20   ar
    40    20    11   ar
    41    19    14   ar
    42     6     1    1
    43    27    22   ar
    44    40    35   ar
    45    32    25    1
@<TRIPOS>MOLECULE
*****
 40 45 0 0 0
SMALL
GASTEIGER

@<TRIPOS>ATOM
      1 N          64.0734   90.2694   15.3873 N.3     1  UNL1       -0.2672
      2 C          63.2846   89.8362   16.5875 C.3     1  UNL1        0.0898
      3 C          63.0420   88.3775   16.8388 C.3     1  UNL1        0.0899
      4 N          63.5881   87.3519   15.8901 N.3     1  UNL1       -0.2665
      5 C          64.3768   87.7851   14.6900 C.3     1  UNL1        0.0899
      6 C          64.6194   89.2439   14.4386 C.3     1  UNL1        0.0898
      7 C          64.3161   91.7281   15.1360 C.3     1  UNL1        0.1201
      8 C          65.7073   92.2220   14.8698 C.3     1  UNL1        0.2226
      9 O          65.9398   93.2929   13.8455 O.3     1  UNL1       -0.4739
     10 C          66.3696   96.6387    7.8562 C.3     1  UNL1        0.0521
     11 C          66.4574   95.7252    9.0428 C.ar    1  UNL1        0.0593
     12 C          65.6763   96.0332   10.2858 C.ar    1  UNL1        0.0148
     13 C          65.7641   95.1198   11.4724 C.ar    1  UNL1        0.0057
     14 C          66.6330   93.8984   11.4159 C.ar    1  UNL1        0.0516
     15 C          66.7208   92.9849   12.6025 C.ar    1  UNL1        0.1400
     16 C          67.5897   91.7636   12.5461 C.ar    1  UNL1        0.0370
     17 C          68.3708   91.4556   11.3030 C.ar    1  UNL1        0.0047
     18 C          68.2830   92.3690   10.1165 C.ar    1  UNL1        0.0193
     19 C          67.4141   93.5904   10.1730 C.ar    1  UNL1        0.0838
     20 N          67.3263   94.5039    8.9864 N.ar    1  UNL1       -0.2496
     21 C          63.3454   85.8932   16.1414 C.3     1  UNL1        0.0993
     22 C          63.5438   84.8985   15.0362 C.ar    1  UNL1       -0.0047
     23 C          64.0219   83.5122   15.3518 C.ar    1  UNL1        0.0003
     24 C          64.2203   82.5177   14.2466 C.ar    1  UNL1        0.0379
     25 C          63.9406   82.9093   12.8259 C.ar    1  UNL1        0.1528
     26 C          63.4624   84.2956   12.5104 C.ar    1  UNL1        0.0878
     27 C          63.2641   85.2902   13.6156 C.ar    1  UNL1        0.0151
     28 N          63.1827   84.6873   11.0897 N.am    1  UNL1       -0.2526
     29 C          63.3811   83.6927    9.9846 C.2     1  UNL1        0.2740
     30 O          63.1014   84.0844    8.5639 O.2     1  UNL1       -0.2705
     31 C          63.8593   82.3064   10.3001 C.3     1  UNL1        0.2900
     32 O          64.1390   81.9147   11.7208 O.3     1  UNL1       -0.4643
     33 C          62.7046   86.0736   10.7742 C.3     1  UNL1        0.1031
     34 C          61.2371   86.3837   10.7950 C.3     1  UNL1        0.0482
     35 C          60.5996   87.0729    9.6251 C.ar    1  UNL1       -0.0205
     36 C          60.5712   88.5713    9.5617 C.ar    1  UNL1       -0.0042
     37 C          59.9337   89.2605    8.3919 C.ar    1  UNL1       -0.0003
     38 C          59.3245   88.4514    7.2854 C.ar    1  UNL1       -0.0000
     39 C          59.3529   86.9530    7.3488 C.ar    1  UNL1       -0.0003
     40 C          59.9905   86.2638    8.5187 C.ar    1  UNL1       -0.0042
@<TRIPOS>BOND
     1    10    11    1
     2    11    12   ar
     3    12    13   ar
     4    13    14   ar
     5    14    15   ar
     6    15     9    1
     7     9     8    1
     8     8     7    1
     9     7     1    1
    10     1     2    1
    11     2     3    1
    12     3     4    1
    13     4    21    1
    14    21    22    1
    15    22    23   ar
    16    23    24   ar
    17    24    25   ar
    18    25    26   ar
    19    26    27   ar
    20    26    28    1
    21    28    33    1
    22    33    34    1
    23    34    35    1
    24    35    36   ar
    25    36    37   ar
    26    37    38   ar
    27    38    39   ar
    28    39    40   ar
    29    28    29   am
    30    29    30    2
    31    29    31    1
    32    31    32    1
    33     4     5    1
    34     5     6    1
    35    15    16   ar
    36    16    17   ar
    37    17    18   ar
    38    18    19   ar
    39    19    20   ar
    40    20    11   ar
    41    19    14   ar
    42     6     1    1
    43    27    22   ar
    44    40    35   ar
    45    32    25    1
@<TRIPOS>MOLECULE
*****
 40 45 0 0 0
SMALL
GASTEIGER

@<TRIPOS>ATOM
      1 N          63.3534   88.5907   16.6110 N.3     1  UNL1       -0.2672
      2 C          62.5198   87.7677   17.5479 C.3     1  UNL1        0.0898
      3 C          62.3729   86.2921   17.3219 C.3     1  UNL1        0.0899
      4 N          63.0597   85.6395   16.1589 N.3     1  UNL1       -0.2665
      5 C          63.8933   86.4625   15.2220 C.3     1  UNL1        0.0899
      6 C          64.0401   87.9381   15.4480 C.3     1  UNL1        0.0898
      7 C          63.5003   90.0663   16.8370 C.3     1  UNL1        0.1201
      8 C          63.7083   90.9866   15.6709 C.3     1  UNL1        0.2226
      9 O          64.6675   90.6108   14.5806 O.3     1  UNL1       -0.4739
     10 C          66.8402   95.5837   10.3617 C.3     1  UNL1        0.0521
     11 C          66.2120   94.4133   11.0585 C.ar    1  UNL1        0.0593
     12 C          66.5521   94.1219   12.4901 C.ar    1  UNL1        0.0148
     13 C          65.9239   92.9515   13.1869 C.ar    1  UNL1        0.0057
     14 C          64.9557   92.0726   12.4522 C.ar    1  UNL1        0.0516
     15 C          64.3275   90.9022   13.1491 C.ar    1  UNL1        0.1400
     16 C          63.3592   90.0232   12.4144 C.ar    1  UNL1        0.0370
     17 C          63.0191   90.3146   10.9828 C.ar    1  UNL1        0.0047
     18 C          63.6473   91.4850   10.2859 C.ar    1  UNL1        0.0193
     19 C          64.6156   92.3640   11.0207 C.ar    1  UNL1        0.0838
     20 N          65.2438   93.5343   10.3238 N.ar    1  UNL1       -0.2496
     21 C          62.9129   84.1639   15.9328 C.3     1  UNL1        0.0993
     22 C          63.1849   83.5821   14.5772 C.ar    1  UNL1       -0.0047
     23 C          63.6621   82.1657   14.4510 C.ar    1  UNL1        0.0003
     24 C          63.9341   81.5839   13.0955 C.ar    1  UNL1        0.0379
     25 C          63.7290   82.4186   11.8662 C.ar    1  UNL1        0.1528
     26 C          63.2518   83.8350   11.9924 C.ar    1  UNL1        0.0878
     27 C          62.9798   84.4168   13.3479 C.ar    1  UNL1        0.0151
     28 N          63.0466   84.6697   10.7631 N.am    1  UNL1       -0.2526
     29 C          63.3186   84.0880    9.4075 C.2     1  UNL1        0.2740
     30 O          63.1135   84.9226    8.1782 O.2     1  UNL1       -0.2705
     31 C          63.7959   82.6715    9.2813 C.3     1  UNL1        0.2900
     32 O          64.0010   81.8368   10.5106 O.3     1  UNL1       -0.4643
     33 C          62.5694   86.0861   10.8893 C.3     1  UNL1        0.1031
     34 C          61.1008   86.3891   10.8508 C.3     1  UNL1        0.0482
     35 C          60.5129   87.1024    9.6694 C.ar    1  UNL1       -0.0205
     36 C          59.9008   86.3171    8.5475 C.ar    1  UNL1       -0.0042
     37 C          59.3129   87.0304    7.3662 C.ar    1  UNL1       -0.0003
     38 C          59.3371   88.5291    7.3068 C.ar    1  UNL1       -0.0000
     39 C          59.9492   89.3144    8.4286 C.ar    1  UNL1       -0.0003
     40 C          60.5371   88.6010    9.6100 C.ar    1  UNL1       -0.0042
@<TRIPOS>BOND
     1    10    11    1
     2    11    12   ar
     3    12    13   ar
     4    13    14   ar
     5    14    15   ar
     6    15     9    1
     7     9     8    1
     8     8     7    1
     9     7     1    1
    10     1     2    1
    11     2     3    1
    12     3     4    1
    13     4    21    1
    14    21    22    1
    15    22    23   ar
    16    23    24   ar
    17    24    25   ar
    18    25    26   ar
    19    26    27   ar
    20    26    28    1
    21    28    33    1
    22    33    34    1
    23    34    35    1
    24    35    36   ar
    25    36    37   ar
    26    37    38   ar
    27    38    39   ar
    28    39    40   ar
    29    28    29   am
    30    29    30    2
    31    29    31    1
    32    31    32    1
    33     4     5    1
    34     5     6    1
    35    15    16   ar
    36    16    17   ar
    37    17    18   ar
    38    18    19   ar
    39    19    20   ar
    40    20    11   ar
    41    19    14   ar
    42     6     1    1
    43    27    22   ar
    44    40    35   ar
    45    32    25    1
@<TRIPOS>MOLECULE
*****
 40 45 0 0 0
SMALL
GASTEIGER

@<TRIPOS>ATOM
      1 N          63.3859   88.7654   16.5091 N.3     1  UNL1       -0.2672
      2 C          62.7318   87.9211   17.5625 C.3     1  UNL1        0.0898
      3 C          62.6381   86.4351   17.3813 C.3     1  UNL1        0.0899
      4 N          63.1984   85.7932   16.1467 N.3     1  UNL1       -0.2665
      5 C          63.8525   86.6375   15.0934 C.3     1  UNL1        0.0899
      6 C          63.9462   88.1235   15.2746 C.3     1  UNL1        0.0898
      7 C          63.4796   90.2514   16.6904 C.3     1  UNL1        0.1201
      8 C          63.8623   91.1255   15.5329 C.3     1  UNL1        0.2226
      9 O          64.7068   92.3441   15.7604 O.3     1  UNL1       -0.4739
     10 C          67.7220   92.1650    9.5858 C.3     1  UNL1        0.0521
     11 C          67.3307   92.2074   11.0332 C.ar    1  UNL1        0.0593
     12 C          65.8810   92.2170   11.4181 C.ar    1  UNL1        0.0148
     13 C          65.4896   92.2593   12.8656 C.ar    1  UNL1        0.0057
     14 C          66.5479   92.2921   13.9280 C.ar    1  UNL1        0.0516
     15 C          66.1565   92.3345   15.3754 C.ar    1  UNL1        0.1400
     16 C          67.2148   92.3673   16.4379 C.ar    1  UNL1        0.0370
     17 C          68.6646   92.3577   16.0529 C.ar    1  UNL1        0.0047
     18 C          69.0560   92.3153   14.6055 C.ar    1  UNL1        0.0193
     19 C          67.9976   92.2825   13.5431 C.ar    1  UNL1        0.0838
     20 N          68.3890   92.2401   12.0956 N.ar    1  UNL1       -0.2496
     21 C          63.1047   84.3072   15.9654 C.3     1  UNL1        0.0993
     22 C          63.3381   83.7003   14.6136 C.ar    1  UNL1       -0.0047
     23 C          63.8181   82.2837   14.5002 C.ar    1  UNL1        0.0003
     24 C          64.0514   81.6769   13.1485 C.ar    1  UNL1        0.0379
     25 C          63.8048   82.4867   11.9101 C.ar    1  UNL1        0.1528
     26 C          63.3249   83.9032   12.0235 C.ar    1  UNL1        0.0878
     27 C          63.0915   84.5100   13.3753 C.ar    1  UNL1        0.0151
     28 N          63.0783   84.7130   10.7852 N.am    1  UNL1       -0.2526
     29 C          63.3116   84.1062    9.4335 C.2     1  UNL1        0.2740
     30 O          63.0650   84.9159    8.1951 O.2     1  UNL1       -0.2705
     31 C          63.7916   82.6895    9.3200 C.3     1  UNL1        0.2900
     32 O          64.0382   81.8798   10.5583 O.3     1  UNL1       -0.4643
     33 C          62.5983   86.1296   10.8986 C.3     1  UNL1        0.1031
     34 C          61.1286   86.4281   10.8691 C.3     1  UNL1        0.0482
     35 C          60.5349   87.1578    9.7007 C.ar    1  UNL1       -0.0205
     36 C          60.5753   88.6565    9.6533 C.ar    1  UNL1       -0.0042
     37 C          59.9816   89.3862    8.4850 C.ar    1  UNL1       -0.0003
     38 C          59.3475   88.6172    7.3639 C.ar    1  UNL1       -0.0000
     39 C          59.3071   87.1185    7.4113 C.ar    1  UNL1       -0.0003
     40 C          59.9008   86.3888    8.5797 C.ar    1  UNL1       -0.0042
@<TRIPOS>BOND
     1    10    11    1
     2    11    12   ar
     3    12    13   ar
     4    13    14   ar
     5    14    15   ar
     6    15     9    1
     7     9     8    1
     8     8     7    1
     9     7     1    1
    10     1     2    1
    11     2     3    1
    12     3     4    1
    13     4    21    1
    14    21    22    1
    15    22    23   ar
    16    23    24   ar
    17    24    25   ar
    18    25    26   ar
    19    26    27   ar
    20    26    28    1
    21    28    33    1
    22    33    34    1
    23    34    35    1
    24    35    36   ar
    25    36    37   ar
    26    37    38   ar
    27    38    39   ar
    28    39    40   ar
    29    28    29   am
    30    29    30    2
    31    29    31    1
    32    31    32    1
    33     4     5    1
    34     5     6    1
    35    15    16   ar
    36    16    17   ar
    37    17    18   ar
    38    18    19   ar
    39    19    20   ar
    40    20    11   ar
    41    19    14   ar
    42     6     1    1
    43    27    22   ar
    44    40    35   ar
    45    32    25    1
@<TRIPOS>MOLECULE
*****
 40 45 0 0 0
SMALL
GASTEIGER

@<TRIPOS>ATOM
      1 N          59.3762   89.2989    7.0971 N.3     1  UNL1       -0.2672
      2 C          59.0311   87.8657    7.3749 C.3     1  UNL1        0.0898
      3 C          59.5343   87.2013    8.6220 C.3     1  UNL1        0.0899
      4 N          60.3826   87.9699    9.5913 N.3     1  UNL1       -0.2665
      5 C          60.7276   89.4030    9.3136 C.3     1  UNL1        0.0899
      6 C          60.2244   90.0675    8.0665 C.3     1  UNL1        0.0898
      7 C          58.8730   89.9634    5.8500 C.3     1  UNL1        0.1201
      8 C          59.2314   91.3917    5.5644 C.3     1  UNL1        0.2226
      9 O          59.3505   91.8659    4.1463 O.3     1  UNL1       -0.4739
     10 C          61.5118   95.5164   -1.2622 C.3     1  UNL1        0.0521
     11 C          61.3086   94.6252   -0.0729 C.ar    1  UNL1        0.0593
     12 C          59.9602   94.5397    0.5785 C.ar    1  UNL1        0.0148
     13 C          59.7569   93.6484    1.7678 C.ar    1  UNL1        0.0057
     14 C          60.9021   92.8427    2.3056 C.ar    1  UNL1        0.0516
     15 C          60.6989   91.9514    3.4949 C.ar    1  UNL1        0.1400
     16 C          61.8441   91.1457    4.0327 C.ar    1  UNL1        0.0370
     17 C          63.1926   91.2312    3.3812 C.ar    1  UNL1        0.0047
     18 C          63.3958   92.1224    2.1920 C.ar    1  UNL1        0.0193
     19 C          62.2505   92.9282    1.6542 C.ar    1  UNL1        0.0838
     20 N          62.4538   93.8194    0.4649 N.ar    1  UNL1       -0.2496
     21 C          60.8857   87.3054   10.8384 C.3     1  UNL1        0.0993
     22 C          61.7590   86.0898   10.7404 C.ar    1  UNL1       -0.0047
     23 C          62.3814   85.7173    9.4275 C.ar    1  UNL1        0.0003
     24 C          63.2547   84.5017    9.3295 C.ar    1  UNL1        0.0379
     25 C          63.5055   83.6585   10.5445 C.ar    1  UNL1        0.1528
     26 C          62.8831   84.0310   11.8574 C.ar    1  UNL1        0.0878
     27 C          62.0099   85.2466   11.9554 C.ar    1  UNL1        0.0151
     28 N          63.1340   83.1878   13.0724 N.am    1  UNL1       -0.2526
     29 C          64.0072   81.9722   12.9744 C.2     1  UNL1        0.2740
     30 O          64.2581   81.1290   14.1894 O.2     1  UNL1       -0.2705
     31 C          64.6297   81.5996   11.6615 C.3     1  UNL1        0.2900
     32 O          64.3788   82.4428   10.4465 O.3     1  UNL1       -0.4643
     33 C          62.5116   83.5603   14.3853 C.3     1  UNL1        0.1031
     34 C          63.3650   84.1045   15.4924 C.3     1  UNL1        0.0482
     35 C          63.4130   85.5823   15.7450 C.ar    1  UNL1       -0.0205
     36 C          62.7100   86.1628   16.9361 C.ar    1  UNL1       -0.0042
     37 C          62.7579   87.6406   17.1888 C.ar    1  UNL1       -0.0003
     38 C          63.5090   88.5379   16.2503 C.ar    1  UNL1       -0.0000
     39 C          64.2121   87.9575   15.0592 C.ar    1  UNL1       -0.0003
     40 C          64.1640   86.4796   14.8066 C.ar    1  UNL1       -0.0042
@<TRIPOS>BOND
     1    10    11    1
     2    11    12   ar
     3    12    13   ar
     4    13    14   ar
     5    14    15   ar
     6    15     9    1
     7     9     8    1
     8     8     7    1
     9     7     1    1
    10     1     2    1
    11     2     3    1
    12     3     4    1
    13     4    21    1
    14    21    22    1
    15    22    23   ar
    16    23    24   ar
    17    24    25   ar
    18    25    26   ar
    19    26    27   ar
    20    26    28    1
    21    28    33    1
    22    33    34    1
    23    34    35    1
    24    35    36   ar
    25    36    37   ar
    26    37    38   ar
    27    38    39   ar
    28    39    40   ar
    29    28    29   am
    30    29    30    2
    31    29    31    1
    32    31    32    1
    33     4     5    1
    34     5     6    1
    35    15    16   ar
    36    16    17   ar
    37    17    18   ar
    38    18    19   ar
    39    19    20   ar
    40    20    11   ar
    41    19    14   ar
    42     6     1    1
    43    27    22   ar
    44    40    35   ar
    45    32    25    1
@<TRIPOS>MOLECULE
*****
 40 45 0 0 0
SMALL
GASTEIGER

@<TRIPOS>ATOM
      1 N          63.9485   85.5665   15.9526 N.3     1  UNL1       -0.2672
      2 C          63.1181   86.1359   17.0644 C.3     1  UNL1        0.0898
      3 C          62.8575   87.6118   17.1257 C.3     1  UNL1        0.0899
      4 N          63.4274   88.5183   16.0752 N.3     1  UNL1       -0.2665
      5 C          64.2578   87.9489   14.9634 C.3     1  UNL1        0.0899
      6 C          64.5184   86.4729   14.9021 C.3     1  UNL1        0.0898
      7 C          64.2091   84.0906   15.8913 C.3     1  UNL1        0.1201
      8 C          63.1807   83.1712   15.3019 C.3     1  UNL1        0.2226
      9 O          62.2615   83.6663   14.2249 O.3     1  UNL1       -0.4739
     10 C          62.9258   78.1020   10.2440 C.3     1  UNL1        0.0521
     11 C          62.8578   79.4593   10.8788 C.ar    1  UNL1        0.0593
     12 C          62.4654   79.5943   12.3203 C.ar    1  UNL1        0.0148
     13 C          62.3975   80.9516   12.9551 C.ar    1  UNL1        0.0057
     14 C          62.7218   82.1740   12.1486 C.ar    1  UNL1        0.0516
     15 C          62.6538   83.5313   12.7834 C.ar    1  UNL1        0.1400
     16 C          62.9782   84.7537   11.9768 C.ar    1  UNL1        0.0370
     17 C          63.3705   84.6187   10.5353 C.ar    1  UNL1        0.0047
     18 C          63.4385   83.2614    9.9004 C.ar    1  UNL1        0.0193
     19 C          63.1141   82.0390   10.7071 C.ar    1  UNL1        0.0838
     20 N          63.1821   80.6817   10.0723 N.ar    1  UNL1       -0.2496
     21 C          63.1668   89.9942   16.1365 C.3     1  UNL1        0.0993
     22 C          64.1075   90.9504   15.4650 C.ar    1  UNL1       -0.0047
     23 C          65.0202   91.8086   16.2900 C.ar    1  UNL1        0.0003
     24 C          65.9608   92.7647   15.6185 C.ar    1  UNL1        0.0379
     25 C          65.9888   92.8627   14.1220 C.ar    1  UNL1        0.1528
     26 C          65.0762   92.0046   13.2969 C.ar    1  UNL1        0.0878
     27 C          64.1356   91.0485   13.9684 C.ar    1  UNL1        0.0151
     28 N          65.1042   92.1026   11.8004 N.am    1  UNL1       -0.2526
     29 C          66.0449   93.0587   11.1289 C.2     1  UNL1        0.2740
     30 O          66.0729   93.1568    9.6324 O.2     1  UNL1       -0.2705
     31 C          66.9576   93.9169   11.9539 C.3     1  UNL1        0.2900
     32 O          66.9295   93.8189   13.4505 O.3     1  UNL1       -0.4643
     33 C          64.1916   91.2445   10.9754 C.3     1  UNL1        0.1031
     34 C          62.7126   91.2670   11.2244 C.3     1  UNL1        0.0482
     35 C          61.8915   90.0364   10.9765 C.ar    1  UNL1       -0.0205
     36 C          60.5777   89.8575   11.6780 C.ar    1  UNL1       -0.0042
     37 C          59.7566   88.6270   11.4302 C.ar    1  UNL1       -0.0003
     38 C          60.2493   87.5752   10.4808 C.ar    1  UNL1       -0.0000
     39 C          61.5630   87.7541    9.7794 C.ar    1  UNL1       -0.0003
     40 C          62.3841   88.9847   10.0272 C.ar    1  UNL1       -0.0042
@<TRIPOS>BOND
     1    10    11    1
     2    11    12   ar
     3    12    13   ar
     4    13    14   ar
     5    14    15   ar
     6    15     9    1
     7     9     8    1
     8     8     7    1
     9     7     1    1
    10     1     2    1
    11     2     3    1
    12     3     4    1
    13     4    21    1
    14    21    22    1
    15    22    23   ar
    16    23    24   ar
    17    24    25   ar
    18    25    26   ar
    19    26    27   ar
    20    26    28    1
    21    28    33    1
    22    33    34    1
    23    34    35    1
    24    35    36   ar
    25    36    37   ar
    26    37    38   ar
    27    38    39   ar
    28    39    40   ar
    29    28    29   am
    30    29    30    2
    31    29    31    1
    32    31    32    1
    33     4     5    1
    34     5     6    1
    35    15    16   ar
    36    16    17   ar
    37    17    18   ar
    38    18    19   ar
    39    19    20   ar
    40    20    11   ar
    41    19    14   ar
    42     6     1    1
    43    27    22   ar
    44    40    35   ar
    45    32    25    1
@<TRIPOS>MOLECULE
*****
 40 45 0 0 0
SMALL
GASTEIGER

@<TRIPOS>ATOM
      1 N          63.5513   91.1410   11.4485 N.3     1  UNL1       -0.2672
      2 C          63.5627   90.0794   12.5082 C.3     1  UNL1        0.0898
      3 C          62.8123   88.7983   12.2945 C.3     1  UNL1        0.0899
      4 N          62.0505   88.5788   11.0211 N.3     1  UNL1       -0.2665
      5 C          62.0391   89.6403    9.9614 C.3     1  UNL1        0.0899
      6 C          62.7895   90.9215   10.1751 C.3     1  UNL1        0.0898
      7 C          64.3016   92.4221   11.6622 C.3     1  UNL1        0.1201
      8 C          65.0190   92.6641   12.9572 C.3     1  UNL1        0.2226
      9 O          65.8943   93.8719   13.1153 O.3     1  UNL1       -0.4739
     10 C          69.4832   91.7522    7.6494 C.3     1  UNL1        0.0521
     11 C          68.7049   92.4685    8.7130 C.ar    1  UNL1        0.0593
     12 C          68.2292   91.7231    9.9246 C.ar    1  UNL1        0.0148
     13 C          67.4509   92.4394   10.9882 C.ar    1  UNL1        0.0057
     14 C          67.1483   93.9010   10.8401 C.ar    1  UNL1        0.0516
     15 C          66.3700   94.6173   11.9037 C.ar    1  UNL1        0.1400
     16 C          66.0674   96.0789   11.7557 C.ar    1  UNL1        0.0370
     17 C          66.5431   96.8244   10.5440 C.ar    1  UNL1        0.0047
     18 C          67.3214   96.1081    9.4804 C.ar    1  UNL1        0.0193
     19 C          67.6240   94.6464    9.6285 C.ar    1  UNL1        0.0838
     20 N          68.4023   93.9301    8.5649 N.ar    1  UNL1       -0.2496
     21 C          61.3002   87.2976   10.8074 C.3     1  UNL1        0.0993
     22 C          62.0412   85.9946   10.7527 C.ar    1  UNL1       -0.0047
     23 C          62.6376   85.5246    9.4591 C.ar    1  UNL1        0.0003
     24 C          63.3786   84.2216    9.4046 C.ar    1  UNL1        0.0379
     25 C          63.5233   83.3886   10.6436 C.ar    1  UNL1        0.1528
     26 C          62.9269   83.8585   11.9372 C.ar    1  UNL1        0.0878
     27 C          62.1859   85.1615   11.9917 C.ar    1  UNL1        0.0151
     28 N          63.0715   83.0255   13.1762 N.am    1  UNL1       -0.2526
     29 C          63.8126   81.7225   13.1216 C.2     1  UNL1        0.2740
     30 O          63.9572   80.8895   14.3606 O.2     1  UNL1       -0.2705
     31 C          64.4090   81.2525   11.8279 C.3     1  UNL1        0.2900
     32 O          64.2643   82.0855   10.5889 O.3     1  UNL1       -0.4643
     33 C          62.4752   83.4955   14.4698 C.3     1  UNL1        0.1031
     34 C          63.3657   83.9970   15.5677 C.3     1  UNL1        0.0482
     35 C          63.3653   85.4533   15.9274 C.ar    1  UNL1       -0.0205
     36 C          62.6491   85.9214   17.1594 C.ar    1  UNL1       -0.0042
     37 C          62.6487   87.3776   17.5190 C.ar    1  UNL1       -0.0003
     38 C          63.3647   88.3658   16.6467 C.ar    1  UNL1       -0.0000
     39 C          64.0810   87.8977   15.4147 C.ar    1  UNL1       -0.0003
     40 C          64.0813   86.4414   15.0550 C.ar    1  UNL1       -0.0042
@<TRIPOS>BOND
     1    10    11    1
     2    11    12   ar
     3    12    13   ar
     4    13    14   ar
     5    14    15   ar
     6    15     9    1
     7     9     8    1
     8     8     7    1
     9     7     1    1
    10     1     2    1
    11     2     3    1
    12     3     4    1
    13     4    21    1
    14    21    22    1
    15    22    23   ar
    16    23    24   ar
    17    24    25   ar
    18    25    26   ar
    19    26    27   ar
    20    26    28    1
    21    28    33    1
    22    33    34    1
    23    34    35    1
    24    35    36   ar
    25    36    37   ar
    26    37    38   ar
    27    38    39   ar
    28    39    40   ar
    29    28    29   am
    30    29    30    2
    31    29    31    1
    32    31    32    1
    33     4     5    1
    34     5     6    1
    35    15    16   ar
    36    16    17   ar
    37    17    18   ar
    38    18    19   ar
    39    19    20   ar
    40    20    11   ar
    41    19    14   ar
    42     6     1    1
    43    27    22   ar
    44    40    35   ar
    45    32    25    1
@<TRIPOS>MOLECULE
*****
 40 45 0 0 0
SMALL
GASTEIGER

@<TRIPOS>ATOM
      1 N          63.6188   90.1257   12.1437 N.3     1  UNL1       -0.2672
      2 C          64.3577   90.4340   13.4123 C.3     1  UNL1        0.0898
      3 C          64.6200   89.3457   14.4108 C.3     1  UNL1        0.0899
      4 N          64.1435   87.9492   14.1406 N.3     1  UNL1       -0.2665
      5 C          63.4048   87.6411   12.8721 C.3     1  UNL1        0.0899
      6 C          63.1424   88.7293   11.8737 C.3     1  UNL1        0.0898
      7 C          63.3565   91.2140   11.1453 C.3     1  UNL1        0.1201
      8 C          63.6881   92.6374   11.4829 C.3     1  UNL1        0.2226
      9 O          64.8274   93.3263   10.7918 O.3     1  UNL1       -0.4739
     10 C          68.8538   92.4916   16.3001 C.3     1  UNL1        0.0521
     11 C          68.1952   92.5643   14.9544 C.ar    1  UNL1        0.0593
     12 C          66.8029   93.1081   14.8291 C.ar    1  UNL1        0.0148
     13 C          66.1444   93.1808   13.4833 C.ar    1  UNL1        0.0057
     14 C          66.8782   92.7097   12.2629 C.ar    1  UNL1        0.0516
     15 C          66.2197   92.7825   10.9171 C.ar    1  UNL1        0.1400
     16 C          66.9534   92.3114    9.6966 C.ar    1  UNL1        0.0370
     17 C          68.3458   91.7675    9.8219 C.ar    1  UNL1        0.0047
     18 C          69.0043   91.6948   11.1676 C.ar    1  UNL1        0.0193
     19 C          68.2705   92.1659   12.3881 C.ar    1  UNL1        0.0838
     20 N          68.9290   92.0932   13.7339 N.ar    1  UNL1       -0.2496
     21 C          64.4059   86.8610   15.1391 C.3     1  UNL1        0.0993
     22 C          63.7409   85.5253   14.9847 C.ar    1  UNL1       -0.0047
     23 C          62.8091   85.0240   16.0480 C.ar    1  UNL1        0.0003
     24 C          62.1441   83.6884   15.8936 C.ar    1  UNL1        0.0379
     25 C          62.4109   82.8540   14.6759 C.ar    1  UNL1        0.1528
     26 C          63.3427   83.3553   13.6127 C.ar    1  UNL1        0.0878
     27 C          64.0076   84.6909   13.7671 C.ar    1  UNL1        0.0151
     28 N          63.6094   82.5209   12.3950 N.am    1  UNL1       -0.2526
     29 C          62.9445   81.1853   12.2407 C.2     1  UNL1        0.2740
     30 O          63.2113   80.3509   11.0230 O.2     1  UNL1       -0.2705
     31 C          62.0127   80.6840   13.3039 C.3     1  UNL1        0.2900
     32 O          61.7459   81.5183   14.5216 O.3     1  UNL1       -0.4643
     33 C          64.5412   83.0221   11.3318 C.3     1  UNL1        0.1031
     34 C          64.0373   83.2432    9.9364 C.3     1  UNL1        0.0482
     35 C          63.0586   84.3454    9.6581 C.ar    1  UNL1       -0.0205
     36 C          62.9147   84.8870    8.2667 C.ar    1  UNL1       -0.0042
     37 C          61.9361   85.9892    7.9885 C.ar    1  UNL1       -0.0003
     38 C          61.1014   86.5499    9.1016 C.ar    1  UNL1       -0.0000
     39 C          61.2453   86.0082   10.4930 C.ar    1  UNL1       -0.0003
     40 C          62.2240   84.9060   10.7712 C.ar    1  UNL1       -0.0042
@<TRIPOS>BOND
     1    10    11    1
     2    11    12   ar
     3    12    13   ar
     4    13    14   ar
     5    14    15   ar
     6    15     9    1
     7     9     8    1
     8     8     7    1
     9     7     1    1
    10     1     2    1
    11     2     3    1
    12     3     4    1
    13     4    21    1
    14    21    22    1
    15    22    23   ar
    16    23    24   ar
    17    24    25   ar
    18    25    26   ar
    19    26    27   ar
    20    26    28    1
    21    28    33    1
    22    33    34    1
    23    34    35    1
    24    35    36   ar
    25    36    37   ar
    26    37    38   ar
    27    38    39   ar
    28    39    40   ar
    29    28    29   am
    30    29    30    2
    31    29    31    1
    32    31    32    1
    33     4     5    1
    34     5     6    1
    35    15    16   ar
    36    16    17   ar
    37    17    18   ar
    38    18    19   ar
    39    19    20   ar
    40    20    11   ar
    41    19    14   ar
    42     6     1    1
    43    27    22   ar
    44    40    35   ar
    45    32    25    1
@<TRIPOS>MOLECULE
*****
 40 45 0 0 0
SMALL
GASTEIGER

@<TRIPOS>ATOM
      1 N          61.0444   89.4045   10.9283 N.3     1  UNL1       -0.2672
      2 C          61.3294   89.9163    9.5474 C.3     1  UNL1        0.0898
      3 C          62.4177   90.9259    9.3316 C.3     1  UNL1        0.0899
      4 N          63.2208   91.4236   10.4966 N.3     1  UNL1       -0.2665
      5 C          62.9357   90.9118   11.8774 C.3     1  UNL1        0.0899
      6 C          61.8475   89.9022   12.0933 C.3     1  UNL1        0.0898
      7 C          59.9562   88.3949   11.1441 C.3     1  UNL1        0.1201
      8 C          60.2824   86.9308   11.1529 C.3     1  UNL1        0.2226
      9 O          61.5663   86.4522   11.7634 O.3     1  UNL1       -0.4739
     10 C          63.8103   80.4563   14.2660 C.3     1  UNL1        0.0521
     11 C          63.4425   81.6782   13.4775 C.ar    1  UNL1        0.0593
     12 C          62.6698   82.7866   14.1289 C.ar    1  UNL1        0.0148
     13 C          62.3019   84.0084   13.3404 C.ar    1  UNL1        0.0057
     14 C          62.7068   84.1219   11.9005 C.ar    1  UNL1        0.0516
     15 C          62.3390   85.3438   11.1120 C.ar    1  UNL1        0.1400
     16 C          62.7439   85.4573    9.6722 C.ar    1  UNL1        0.0370
     17 C          63.5167   84.3488    9.0208 C.ar    1  UNL1        0.0047
     18 C          63.8845   83.1270    9.8093 C.ar    1  UNL1        0.0193
     19 C          63.4796   83.0135   11.2492 C.ar    1  UNL1        0.0838
     20 N          63.8474   81.7916   12.0377 N.ar    1  UNL1       -0.2496
     21 C          64.3090   92.4332   10.2808 C.3     1  UNL1        0.0993
     22 C          65.5826   92.3430   11.0682 C.ar    1  UNL1       -0.0047
     23 C          66.9031   92.3099   10.3574 C.ar    1  UNL1        0.0003
     24 C          68.1766   92.2197   11.1447 C.ar    1  UNL1        0.0379
     25 C          68.1296   92.1627   12.6429 C.ar    1  UNL1        0.1528
     26 C          66.8092   92.1958   13.3537 C.ar    1  UNL1        0.0878
     27 C          65.5357   92.2860   12.5664 C.ar    1  UNL1        0.0151
     28 N          66.7623   92.1388   14.8519 N.am    1  UNL1       -0.2526
     29 C          68.0358   92.0486   15.6393 C.2     1  UNL1        0.2740
     30 O          67.9889   91.9916   17.1375 O.2     1  UNL1       -0.2705
     31 C          69.3563   92.0155   14.9285 C.3     1  UNL1        0.2900
     32 O          69.4032   92.0726   13.4303 O.3     1  UNL1       -0.4643
     33 C          65.4418   92.1719   15.5627 C.3     1  UNL1        0.1031
     34 C          64.2671   91.4298   14.9977 C.3     1  UNL1        0.0482
     35 C          64.0448   89.9909   15.3587 C.ar    1  UNL1       -0.0205
     36 C          64.5792   88.9044   14.4733 C.ar    1  UNL1       -0.0042
     37 C          64.3569   87.4655   14.8343 C.ar    1  UNL1       -0.0003
     38 C          63.6003   87.1132   16.0807 C.ar    1  UNL1       -0.0000
     39 C          63.0660   88.1997   16.9661 C.ar    1  UNL1       -0.0003
     40 C          63.2882   89.6386   16.6051 C.ar    1  UNL1       -0.0042
@<TRIPOS>BOND
     1    10    11    1
     2    11    12   ar
     3    12    13   ar
     4    13    14   ar
     5    14    15   ar
     6    15     9    1
     7     9     8    1
     8     8     7    1
     9     7     1    1
    10     1     2    1
    11     2     3    1
    12     3     4    1
    13     4    21    1
    14    21    22    1
    15    22    23   ar
    16    23    24   ar
    17    24    25   ar
    18    25    26   ar
    19    26    27   ar
    20    26    28    1
    21    28    33    1
    22    33    34    1
    23    34    35    1
    24    35    36   ar
    25    36    37   ar
    26    37    38   ar
    27    38    39   ar
    28    39    40   ar
    29    28    29   am
    30    29    30    2
    31    29    31    1
    32    31    32    1
    33     4     5    1
    34     5     6    1
    35    15    16   ar
    36    16    17   ar
    37    17    18   ar
    38    18    19   ar
    39    19    20   ar
    40    20    11   ar
    41    19    14   ar
    42     6     1    1
    43    27    22   ar
    44    40    35   ar
    45    32    25    1
