@<TRIPOS>MOLECULE
*****
 37 42 0 0 0
SMALL
GASTEIGER

@<TRIPOS>ATOM
      1 C          60.6078   88.8076    9.7650 C.3     1  UNL1        0.1455
      2 C          59.8579   89.6055    8.7398 C.3     1  UNL1        0.1634
      3 O          59.3938   88.9509    7.4725 O.3     1  UNL1       -0.3507
      4 C          59.6795   87.4984    7.2304 C.3     1  UNL1        0.1598
      5 C          60.4293   86.7005    8.2556 C.3     1  UNL1        0.1093
      6 N          60.8935   87.3551    9.5229 N.3     1  UNL1       -0.1499
      7 C          61.0719   89.4623   11.0323 C.3     1  UNL1        0.1550
      8 C          59.7529   89.6714   11.7155 C.3     1  UNL1        0.0453
      9 C          61.0219   90.1106   12.3840 C.3     1  UNL1        0.0453
     10 O          62.5519   89.4805   10.7892 O.3     1  UNL1       -0.4403
     11 O          68.1449   93.7828   16.3206 O.2     1  UNL1       -0.2750
     12 C          67.2426   93.2290   15.2580 C.2     1  UNL1        0.2240
     13 C          66.8139   93.6759   13.8918 C.3     1  UNL1        0.1031
     14 C          65.9665   92.4458   13.7552 C.3     1  UNL1        0.0686
     15 C          65.2589   91.1419   13.9769 C.3     1  UNL1        0.0401
     16 C          64.3566   90.5881   12.9143 C.3     1  UNL1        0.0984
     17 N          64.1618   91.3382   11.6301 N.am    1  UNL1       -0.2459
     18 C          63.2594   90.7844   10.5674 C.2     1  UNL1        0.4047
     19 O          63.0647   91.5345    9.2832 O.2     1  UNL1       -0.2262
     20 C          64.8693   92.6421   11.4083 C.3     1  UNL1        0.0984
     21 C          65.7717   93.1959   12.4710 C.3     1  UNL1        0.0401
     22 N          66.3951   91.9988   15.1214 N.am    1  UNL1       -0.3068
     23 H          66.2008   91.2204   15.6921 H       1  UNL1        0.1493
     24 S          61.6433   86.5572   10.5482 S.O2    1  UNL1        0.0635
     25 O          62.8154   86.4622    9.6169 O.2     1  UNL1       -0.1528
     26 O          60.7830   86.4664   11.5846 O.2     1  UNL1       -0.1528
     27 C          62.3932   85.7593   11.5733 C.ar    1  UNL1        0.1223
     28 C          62.4203   84.2620   11.4855 C.ar    1  UNL1        0.0208
     29 C          63.1702   83.4641   12.5107 C.ar    1  UNL1        0.0128
     30 C          63.8930   84.1633   13.6236 C.ar    1  UNL1        0.0578
     31 CL         64.6428   83.3654   14.6488 Cl      1  UNL1       -0.0822
     32 C          63.8658   85.6605   13.7114 C.ar    1  UNL1        0.0128
     33 C          63.1160   86.4585   12.6863 C.ar    1  UNL1        0.0208
     34 C          60.7150   85.2480    8.0135 C.3     1  UNL1        0.0203
     35 C          61.5205   84.8310    6.8188 C.3     1  UNL1        0.0015
     36 C          61.6256   84.0973    5.5148 C.3     1  UNL1        0.0000
     37 C          62.8106   84.8427    6.0536 C.3     1  UNL1        0.0000
@<TRIPOS>BOND
     1    11    12    2
     2    12    13    1
     3    13    14    1
     4    14    15    1
     5    15    16    1
     6    16    17    1
     7    17    18   am
     8    18    19    2
     9    18    10    1
    10    10     7    1
    11     1     7    1
    12     1     2    1
    13     2     3    1
    14     3     4    1
    15     4     5    1
    16     5    34    1
    17    34    35    1
    18    35    36    1
    19    36    37    1
    20     5     6    1
    21     6    24    1
    22    24    25    2
    23    24    26    2
    24    24    27    1
    25    27    28   ar
    26    28    29   ar
    27    29    30   ar
    28    30    31    1
    29    30    32   ar
    30    32    33   ar
    31     7     8    1
    32     8     9    1
    33    17    20    1
    34    20    21    1
    35    14    22    1
    36    22    12   am
    37    21    14    1
    38     9     7    1
    39     6     1    1
    40    33    27   ar
    41    37    35    1
    42    22    23    1
@<TRIPOS>MOLECULE
*****
 37 42 0 0 0
SMALL
GASTEIGER

@<TRIPOS>ATOM
      1 C          63.2158   90.6257   11.5129 C.3     1  UNL1        0.1455
      2 C          63.4580   91.4936   10.3136 C.3     1  UNL1        0.1634
      3 O          64.5470   92.5247   10.3416 O.3     1  UNL1       -0.3507
      4 C          65.3938   92.6881   11.5689 C.3     1  UNL1        0.1598
      5 C          65.1517   91.8203   12.7681 C.3     1  UNL1        0.1093
      6 N          64.0627   90.7891   12.7401 N.3     1  UNL1       -0.1499
      7 C          62.1268   89.5946   11.4848 C.3     1  UNL1        0.1550
      8 C          60.9270   90.4864   11.3613 C.3     1  UNL1        0.0453
      9 C          60.7524   88.9976   11.4172 C.3     1  UNL1        0.0453
     10 O          62.9484   88.3448   11.5985 O.3     1  UNL1       -0.4403
     11 O          63.3575   79.7729   14.1951 O.2     1  UNL1       -0.2750
     12 C          63.2102   81.1297   13.5728 C.2     1  UNL1        0.2240
     13 C          62.7289   81.6424   12.2478 C.3     1  UNL1        0.1031
     14 C          63.0019   83.0486   12.6927 C.3     1  UNL1        0.0686
     15 C          63.3902   84.2742   13.4653 C.3     1  UNL1        0.0401
     16 C          63.2429   85.6311   12.8430 C.3     1  UNL1        0.0984
     17 N          62.7074   85.7623   11.4481 N.am    1  UNL1       -0.2459
     18 C          62.5601   87.1192   10.8257 C.2     1  UNL1        0.4047
     19 O          62.0246   87.2504    9.4308 O.2     1  UNL1       -0.2262
     20 C          62.3191   84.5367   10.6754 C.3     1  UNL1        0.0984
     21 C          62.4664   83.1798   11.2977 C.3     1  UNL1        0.0401
     22 N          63.4832   82.5360   14.0177 N.am    1  UNL1       -0.3068
     23 H          63.8333   82.9508   14.8391 H       1  UNL1        0.1493
     24 S          63.8205   89.9212   13.9394 S.O2    1  UNL1        0.0635
     25 O          62.8720   90.9451   14.4888 O.2     1  UNL1       -0.1528
     26 O          64.5961   88.8380   13.7207 O.2     1  UNL1       -0.1528
     27 C          63.5783   89.0534   15.1386 C.ar    1  UNL1        0.1223
     28 C          63.0568   89.6578   16.4087 C.ar    1  UNL1        0.0208
     29 C          62.8146   88.7900   17.6079 C.ar    1  UNL1        0.0128
     30 C          63.0938   87.3180   17.5373 C.ar    1  UNL1        0.0578
     31 CL         62.8516   86.4502   18.7365 Cl      1  UNL1       -0.0822
     32 C          63.6152   86.7137   16.2672 C.ar    1  UNL1        0.0128
     33 C          63.8575   87.5813   15.0679 C.ar    1  UNL1        0.0208
     34 C          65.9985   91.9835   13.9954 C.3     1  UNL1        0.0203
     35 C          67.4935   92.0148   13.8764 C.3     1  UNL1        0.0015
     36 C          68.7426   91.6944   13.1103 C.3     1  UNL1        0.0000
     37 C          68.8336   92.3895   14.4364 C.3     1  UNL1        0.0000
@<TRIPOS>BOND
     1    11    12    2
     2    12    13    1
     3    13    14    1
     4    14    15    1
     5    15    16    1
     6    16    17    1
     7    17    18   am
     8    18    19    2
     9    18    10    1
    10    10     7    1
    11     1     7    1
    12     1     2    1
    13     2     3    1
    14     3     4    1
    15     4     5    1
    16     5    34    1
    17    34    35    1
    18    35    36    1
    19    36    37    1
    20     5     6    1
    21     6    24    1
    22    24    25    2
    23    24    26    2
    24    24    27    1
    25    27    28   ar
    26    28    29   ar
    27    29    30   ar
    28    30    31    1
    29    30    32   ar
    30    32    33   ar
    31     7     8    1
    32     8     9    1
    33    17    20    1
    34    20    21    1
    35    14    22    1
    36    22    12   am
    37    21    14    1
    38     9     7    1
    39     6     1    1
    40    33    27   ar
    41    37    35    1
    42    22    23    1
@<TRIPOS>MOLECULE
*****
 37 42 0 0 0
SMALL
GASTEIGER

@<TRIPOS>ATOM
      1 C          60.6996   88.6087    9.9854 C.3     1  UNL1        0.1455
      2 C          59.9880   89.4619    8.9775 C.3     1  UNL1        0.1634
      3 O          59.5880   88.8824    7.6531 O.3     1  UNL1       -0.3507
      4 C          59.8995   87.4497    7.3365 C.3     1  UNL1        0.1598
      5 C          60.6110   86.5965    8.3443 C.3     1  UNL1        0.1093
      6 N          61.0111   87.1760    9.6688 N.3     1  UNL1       -0.1499
      7 C          61.0996   89.1884   11.3098 C.3     1  UNL1        0.1550
      8 C          59.7479   89.5295   11.8636 C.3     1  UNL1        0.0453
      9 C          60.9819   89.8166   12.6668 C.3     1  UNL1        0.0453
     10 O          62.5901   89.0486   11.2158 O.3     1  UNL1       -0.4403
     11 O          67.1211   96.7581   10.5670 O.2     1  UNL1       -0.2750
     12 C          66.4468   95.4544   10.8763 C.2     1  UNL1        0.2240
     13 C          66.4135   94.5316   12.0584 C.3     1  UNL1        0.1031
     14 C          65.4933   93.6106   11.3136 C.3     1  UNL1        0.0686
     15 C          64.6129   92.9598   10.2882 C.3     1  UNL1        0.0401
     16 C          63.9387   91.6560   10.5974 C.3     1  UNL1        0.0984
     17 N          64.1447   91.0031   11.9320 N.am    1  UNL1       -0.2459
     18 C          63.4704   89.6993   12.2413 C.2     1  UNL1        0.4047
     19 O          63.6765   89.0464   13.5758 O.2     1  UNL1       -0.2262
     20 C          65.0250   91.6539   12.9574 C.3     1  UNL1        0.0984
     21 C          65.6994   92.9577   12.6482 C.3     1  UNL1        0.0401
     22 N          65.5265   94.5333   10.1314 N.am    1  UNL1       -0.3068
     23 H          65.1148   94.5341    9.2372 H       1  UNL1        0.1493
     24 S          61.7227   86.3228   10.6767 S.O2    1  UNL1        0.0635
     25 O          62.8467   86.1135    9.7058 O.2     1  UNL1       -0.1528
     26 O          60.8959   86.3198   11.7439 O.2     1  UNL1       -0.1528
     27 C          62.4343   85.4697   11.6845 C.ar    1  UNL1        0.1223
     28 C          63.0675   86.1016   12.8885 C.ar    1  UNL1        0.0208
     29 C          63.7791   85.2485   13.8963 C.ar    1  UNL1        0.0128
     30 C          63.8575   83.7634   13.7002 C.ar    1  UNL1        0.0578
     31 CL         64.5691   82.9103   14.7080 Cl      1  UNL1       -0.0822
     32 C          63.2242   83.1316   12.4961 C.ar    1  UNL1        0.0128
     33 C          62.5126   83.9846   11.4883 C.ar    1  UNL1        0.0208
     34 C          60.9226   85.1638    8.0278 C.3     1  UNL1        0.0203
     35 C          61.6608   84.8172    6.7688 C.3     1  UNL1        0.0015
     36 C          61.6569   84.2960    5.3623 C.3     1  UNL1        0.0000
     37 C          62.9432   84.7381    5.9948 C.3     1  UNL1        0.0000
@<TRIPOS>BOND
     1    11    12    2
     2    12    13    1
     3    13    14    1
     4    14    15    1
     5    15    16    1
     6    16    17    1
     7    17    18   am
     8    18    19    2
     9    18    10    1
    10    10     7    1
    11     1     7    1
    12     1     2    1
    13     2     3    1
    14     3     4    1
    15     4     5    1
    16     5    34    1
    17    34    35    1
    18    35    36    1
    19    36    37    1
    20     5     6    1
    21     6    24    1
    22    24    25    2
    23    24    26    2
    24    24    27    1
    25    27    28   ar
    26    28    29   ar
    27    29    30   ar
    28    30    31    1
    29    30    32   ar
    30    32    33   ar
    31     7     8    1
    32     8     9    1
    33    17    20    1
    34    20    21    1
    35    14    22    1
    36    22    12   am
    37    21    14    1
    38     9     7    1
    39     6     1    1
    40    33    27   ar
    41    37    35    1
    42    22    23    1
@<TRIPOS>MOLECULE
*****
 37 42 0 0 0
SMALL
GASTEIGER

@<TRIPOS>ATOM
      1 C          63.8071   90.6113   14.0594 C.3     1  UNL1        0.1455
      2 C          63.0993   90.1195   15.2871 C.3     1  UNL1        0.1634
      3 O          63.4419   90.6922   16.6304 O.3     1  UNL1       -0.3507
      4 C          64.4922   91.7567   16.7461 C.3     1  UNL1        0.1598
      5 C          65.2001   92.2486   15.5186 C.3     1  UNL1        0.1093
      6 N          64.8575   91.6759   14.1751 N.3     1  UNL1       -0.1499
      7 C          63.4645   90.0385   12.7161 C.3     1  UNL1        0.1550
      8 C          63.0804   91.2928   11.9885 C.3     1  UNL1        0.0453
      9 C          63.0298   89.9704   11.2821 C.3     1  UNL1        0.0453
     10 O          63.7295   88.5854   12.9772 O.3     1  UNL1       -0.4403
     11 O          63.3556   79.7317   14.3413 O.2     1  UNL1       -0.2750
     12 C          63.3046   81.1737   13.9313 C.2     1  UNL1        0.2240
     13 C          62.7171   81.9276   12.7752 C.3     1  UNL1        0.1031
     14 C          63.2325   83.2130   13.3514 C.3     1  UNL1        0.0686
     15 C          63.8825   84.2595   14.2072 C.3     1  UNL1        0.0401
     16 C          63.8315   85.7014   13.7972 C.3     1  UNL1        0.0984
     17 N          63.1305   86.0969   12.5314 N.am    1  UNL1       -0.2459
     18 C          63.0796   87.5390   12.1214 C.2     1  UNL1        0.4047
     19 O          62.3786   87.9344   10.8556 O.2     1  UNL1       -0.2262
     20 C          62.4806   85.0505   11.6756 C.3     1  UNL1        0.0984
     21 C          62.5316   83.6084   12.0856 C.3     1  UNL1        0.0401
     22 N          63.8201   82.4592   14.5075 N.am    1  UNL1       -0.3068
     23 H          64.3320   82.7059   15.3114 H       1  UNL1        0.1493
     24 S          65.5653   92.1677   12.9474 S.O2    1  UNL1        0.0635
     25 O          66.6389   91.1409   13.1552 O.2     1  UNL1       -0.1528
     26 O          64.7819   93.1714   12.4988 O.2     1  UNL1       -0.1528
     27 C          66.2731   92.6594   11.7198 C.ar    1  UNL1        0.1223
     28 C          65.7744   93.8803   11.0050 C.ar    1  UNL1        0.0208
     29 C          66.4822   94.3720    9.7774 C.ar    1  UNL1        0.0128
     30 C          67.6887   93.6431    9.2645 C.ar    1  UNL1        0.0578
     31 CL         68.3965   94.1349    8.0369 Cl      1  UNL1       -0.0822
     32 C          68.1874   92.4223    9.9794 C.ar    1  UNL1        0.0128
     33 C          67.4796   91.9304   11.2071 C.ar    1  UNL1        0.0208
     34 C          66.2504   93.3131   15.6342 C.3     1  UNL1        0.0203
     35 C          67.6864   92.9308   15.8396 C.3     1  UNL1        0.0015
     36 C          68.7141   92.0108   16.4287 C.3     1  UNL1        0.0000
     37 C          69.1455   93.1888   15.6063 C.3     1  UNL1        0.0000
@<TRIPOS>BOND
     1    11    12    2
     2    12    13    1
     3    13    14    1
     4    14    15    1
     5    15    16    1
     6    16    17    1
     7    17    18   am
     8    18    19    2
     9    18    10    1
    10    10     7    1
    11     1     7    1
    12     1     2    1
    13     2     3    1
    14     3     4    1
    15     4     5    1
    16     5    34    1
    17    34    35    1
    18    35    36    1
    19    36    37    1
    20     5     6    1
    21     6    24    1
    22    24    25    2
    23    24    26    2
    24    24    27    1
    25    27    28   ar
    26    28    29   ar
    27    29    30   ar
    28    30    31    1
    29    30    32   ar
    30    32    33   ar
    31     7     8    1
    32     8     9    1
    33    17    20    1
    34    20    21    1
    35    14    22    1
    36    22    12   am
    37    21    14    1
    38     9     7    1
    39     6     1    1
    40    33    27   ar
    41    37    35    1
    42    22    23    1
@<TRIPOS>MOLECULE
*****
 37 42 0 0 0
SMALL
GASTEIGER

@<TRIPOS>ATOM
      1 C          63.1858   87.8262   13.0194 C.3     1  UNL1        0.1455
      2 C          64.0266   87.3590   14.1704 C.3     1  UNL1        0.1634
      3 O          64.3572   85.9032   14.3154 O.3     1  UNL1       -0.3507
      4 C          63.8471   84.9144   13.3094 C.3     1  UNL1        0.1598
      5 C          63.0064   85.3815   12.1584 C.3     1  UNL1        0.1093
      6 N          62.6757   86.8375   12.0133 N.3     1  UNL1       -0.1499
      7 C          62.8552   89.2821   12.8745 C.3     1  UNL1        0.1550
      8 C          61.9210   89.4538   14.0355 C.3     1  UNL1        0.0453
      9 C          62.2400   90.6221   13.1503 C.3     1  UNL1        0.0453
     10 O          63.6746   89.6161   11.6632 O.3     1  UNL1       -0.4403
     11 O          69.1331   94.5618   16.7752 O.2     1  UNL1       -0.2750
     12 C          68.2106   93.9085   15.7892 C.2     1  UNL1        0.2240
     13 C          67.5607   94.3296   14.5046 C.3     1  UNL1        0.1031
     14 C          66.9061   92.9845   14.3948 C.3     1  UNL1        0.0686
     15 C          66.4420   91.5762   14.6212 C.3     1  UNL1        0.0401
     16 C          65.5195   90.9228   13.6352 C.3     1  UNL1        0.0984
     17 N          65.0612   91.6777   12.4228 N.am    1  UNL1       -0.2459
     18 C          64.1387   91.0243   11.4367 C.2     1  UNL1        0.4047
     19 O          63.6803   91.7793   10.2244 O.2     1  UNL1       -0.2262
     20 C          65.5252   93.0860   12.1963 C.3     1  UNL1        0.0984
     21 C          66.4477   93.7394   13.1824 C.3     1  UNL1        0.0401
     22 N          67.5560   92.5633   15.6794 N.am    1  UNL1       -0.3068
     23 H          67.5538   91.7435   16.2246 H       1  UNL1        0.1493
     24 S          61.8349   87.3047   10.8623 S.O2    1  UNL1        0.0635
     25 O          60.6046   87.1826   11.7115 O.2     1  UNL1       -0.1528
     26 O          62.7263   87.5130    9.8700 O.2     1  UNL1       -0.1528
     27 C          60.9941   87.7718    9.7113 C.ar    1  UNL1        0.1223
     28 C          60.2052   86.7806    8.9080 C.ar    1  UNL1        0.0208
     29 C          59.3644   87.2478    7.7570 C.ar    1  UNL1        0.0128
     30 C          59.3124   88.7060    7.4093 C.ar    1  UNL1        0.0578
     31 CL         58.4716   89.1731    6.2584 Cl      1  UNL1       -0.0822
     32 C          60.1013   89.6971    8.2127 C.ar    1  UNL1        0.0128
     33 C          60.9422   89.2300    9.3637 C.ar    1  UNL1        0.0208
     34 C          62.4962   84.3929   11.1523 C.3     1  UNL1        0.0203
     35 C          62.9843   82.9747   11.1802 C.3     1  UNL1        0.0015
     36 C          63.7878   81.8652   10.5694 C.3     1  UNL1        0.0000
     37 C          63.0259   81.6280   11.8395 C.3     1  UNL1        0.0000
@<TRIPOS>BOND
     1    11    12    2
     2    12    13    1
     3    13    14    1
     4    14    15    1
     5    15    16    1
     6    16    17    1
     7    17    18   am
     8    18    19    2
     9    18    10    1
    10    10     7    1
    11     1     7    1
    12     1     2    1
    13     2     3    1
    14     3     4    1
    15     4     5    1
    16     5    34    1
    17    34    35    1
    18    35    36    1
    19    36    37    1
    20     5     6    1
    21     6    24    1
    22    24    25    2
    23    24    26    2
    24    24    27    1
    25    27    28   ar
    26    28    29   ar
    27    29    30   ar
    28    30    31    1
    29    30    32   ar
    30    32    33   ar
    31     7     8    1
    32     8     9    1
    33    17    20    1
    34    20    21    1
    35    14    22    1
    36    22    12   am
    37    21    14    1
    38     9     7    1
    39     6     1    1
    40    33    27   ar
    41    37    35    1
    42    22    23    1
