@<TRIPOS>MOLECULE
*****
 44 48 0 0 0
SMALL
GASTEIGER

@<TRIPOS>ATOM
      1 O          60.6882   87.2654    8.5266 O.2     1  UNL1       -0.2729
      2 C          60.1651   88.6260    8.1727 C.2     1  UNL1        0.2461
      3 N          60.5828   89.8222    8.9757 N.am    1  UNL1       -0.2825
      4 H          60.2395   90.7152    8.7434 H       1  UNL1        0.1549
      5 C          61.5234   89.6578   10.1324 C.ar    1  UNL1        0.0503
      6 C          61.5453   88.3718   10.9044 C.ar    1  UNL1        0.0144
      7 C          62.4859   88.2073   12.0611 C.ar    1  UNL1       -0.0017
      8 C          63.4046   89.3289   12.4460 C.ar    1  UNL1       -0.0022
      9 C          63.3827   90.6148   11.6742 C.ar    1  UNL1        0.0700
     10 C          62.4421   90.7793   10.5173 C.ar    1  UNL1        0.0182
     11 C          64.3015   91.7363   12.0591 C.3     1  UNL1        0.4184
     12 F          65.2202   92.8578   12.4440 F       1  UNL1       -0.1659
     13 F          63.6577   91.7992   13.4125 F       1  UNL1       -0.1659
     14 F          64.9452   91.6735   10.7057 F       1  UNL1       -0.1659
     15 C          64.3452   89.1644   13.6028 C.3     1  UNL1        0.0992
     16 N          63.9571   88.3040   14.7687 N.3     1  UNL1       -0.2665
     17 C          64.2311   86.8296   14.7367 C.3     1  UNL1        0.0897
     18 C          63.8430   85.9692   15.9025 C.3     1  UNL1        0.0862
     19 N          63.1809   86.5833   17.1003 N.3     1  UNL1       -0.2951
     20 C          62.9069   88.0577   17.1323 C.3     1  UNL1        0.0862
     21 C          63.2950   88.9181   15.9664 C.3     1  UNL1        0.0897
     22 H          63.7749   86.3767   17.9033 H       1  UNL1        0.1233
     23 C          59.2245   88.7904    7.0159 C.3     1  UNL1        0.1739
     24 N          58.7650   90.1599    6.6116 N.pl3   1  UNL1       -0.3253
     25 H          58.0060   90.5814    7.0759 H       1  UNL1        0.1473
     26 C          59.4619   90.8871    5.5001 C.ar    1  UNL1        0.0450
     27 C          58.7240   91.9201    4.7012 C.ar    1  UNL1        0.0143
     28 C          59.4209   92.6473    3.5897 C.ar    1  UNL1        0.0013
     29 C          60.8557   92.3414    3.2770 C.ar    1  UNL1        0.0016
     30 C          61.5936   91.3084    4.0759 C.ar    1  UNL1        0.0013
     31 C          60.8967   90.5812    5.1874 C.ar    1  UNL1        0.0143
     32 C          61.5526   93.0687    2.1654 C.ar    1  UNL1        0.0193
     33 C          63.0148   92.8408    1.9211 C.ar    1  UNL1        0.0044
     34 C          63.7117   93.5681    0.8095 C.ar    1  UNL1        0.0345
     35 C          62.9463   94.5231   -0.0577 C.ar    1  UNL1        0.1342
     36 N          61.4839   94.7509    0.1867 N.ar    1  UNL1       -0.2290
     37 C          60.7871   94.0237    1.2983 C.ar    1  UNL1        0.1003
     38 N          63.6431   95.2503   -1.1692 N.am    1  UNL1       -0.2694
     39 C          63.9243   94.5480   -2.4644 C.2     1  UNL1        0.2267
     40 O          63.5087   93.1185   -2.6481 O.2     1  UNL1       -0.2748
     41 H          63.9158   96.1886   -1.0487 H       1  UNL1        0.1563
     42 C          64.6212   95.2752   -3.5761 C.3     1  UNL1        0.0769
     43 C          65.0484   95.3504   -5.0119 C.3     1  UNL1        0.0096
     44 C          65.4009   96.4595   -4.0655 C.3     1  UNL1        0.0096
@<TRIPOS>BOND
     1     1     2    2
     2     2    23    1
     3    23    24    1
     4    24    26    1
     5    26    27   ar
     6    27    28   ar
     7    28    29   ar
     8    29    32    1
     9    32    33   ar
    10    33    34   ar
    11    34    35   ar
    12    35    38    1
    13    38    39   am
    14    39    40    2
    15    39    42    1
    16    42    43    1
    17    43    44    1
    18    35    36   ar
    19    36    37   ar
    20    29    30   ar
    21    30    31   ar
    22     2     3   am
    23     3     5    1
    24     5     6   ar
    25     6     7   ar
    26     7     8   ar
    27     8    15    1
    28    15    16    1
    29    16    17    1
    30    17    18    1
    31    18    19    1
    32    19    20    1
    33    20    21    1
    34     8     9   ar
    35     9    11    1
    36    11    12    1
    37    11    13    1
    38    11    14    1
    39     9    10   ar
    40    31    26   ar
    41    10     5   ar
    42    37    32   ar
    43    21    16    1
    44    44    42    1
    45    24    25    1
    46    38    41    1
    47     3     4    1
    48    19    22    1
@<TRIPOS>MOLECULE
*****
 44 48 0 0 0
SMALL
GASTEIGER

@<TRIPOS>ATOM
      1 O          63.1227   88.2948   10.1283 O.2     1  UNL1       -0.2729
      2 C          62.3570   87.9854   11.3804 C.2     1  UNL1        0.2461
      3 N          62.5316   88.8441   12.5978 N.am    1  UNL1       -0.2825
      4 H          62.0290   88.6410   13.4197 H       1  UNL1        0.1549
      5 C          63.4720   90.0121   12.5631 C.ar    1  UNL1        0.0503
      6 C          63.4950   90.9213   11.3702 C.ar    1  UNL1        0.0144
      7 C          64.4354   92.0894   11.3354 C.ar    1  UNL1       -0.0017
      8 C          65.3529   92.3483   12.4935 C.ar    1  UNL1       -0.0022
      9 C          65.3299   91.4392   13.6864 C.ar    1  UNL1        0.0700
     10 C          64.3895   90.2711   13.7212 C.ar    1  UNL1        0.0182
     11 C          66.2474   91.6982   14.8445 C.3     1  UNL1        0.4184
     12 F          67.1648   91.9572   16.0026 F       1  UNL1       -0.1659
     13 F          67.4172   91.2544   14.0170 F       1  UNL1       -0.1659
     14 F          65.0776   92.1419   15.6720 F       1  UNL1       -0.1659
     15 C          66.2933   93.5164   12.4588 C.3     1  UNL1        0.0992
     16 N          66.8067   94.0271   11.1451 N.3     1  UNL1       -0.2665
     17 C          66.5703   95.4550   10.7514 C.3     1  UNL1        0.0897
     18 C          67.0837   95.9657    9.4378 C.3     1  UNL1        0.0862
     19 N          67.8336   95.0484    8.5178 N.3     1  UNL1       -0.2951
     20 C          68.0701   93.6205    8.9115 C.3     1  UNL1        0.0862
     21 C          67.5566   93.1098   10.2252 C.3     1  UNL1        0.0897
     22 H          68.7510   95.4681    8.3671 H       1  UNL1        0.1233
     23 C          61.4165   86.8173   11.4152 C.3     1  UNL1        0.1739
     24 N          60.1112   86.8832   10.6791 N.pl3   1  UNL1       -0.3253
     25 H          59.3479   86.3396   10.9809 H       1  UNL1        0.1473
     26 C          59.9688   87.7775    9.4832 C.ar    1  UNL1        0.0450
     27 C          60.2484   89.2459    9.6072 C.ar    1  UNL1        0.0143
     28 C          60.1060   90.1401    8.4113 C.ar    1  UNL1        0.0013
     29 C          59.6840   89.5657    7.0914 C.ar    1  UNL1        0.0016
     30 C          59.4045   88.0973    6.9674 C.ar    1  UNL1        0.0013
     31 C          59.5469   87.2031    8.1633 C.ar    1  UNL1        0.0143
     32 C          59.5417   90.4600    5.8955 C.ar    1  UNL1        0.0193
     33 C          60.7574   90.8789    5.1233 C.ar    1  UNL1        0.0044
     34 C          60.6150   91.7731    3.9273 C.ar    1  UNL1        0.0345
     35 C          59.2568   92.2484    3.5038 C.ar    1  UNL1        0.1342
     36 N          58.0411   91.8295    4.2761 N.ar    1  UNL1       -0.2290
     37 C          58.1835   90.9353    5.4720 C.ar    1  UNL1        0.1003
     38 N          59.1144   93.1426    2.3079 N.am    1  UNL1       -0.2694
     39 C          60.1956   93.1834    1.2690 C.2     1  UNL1        0.2267
     40 O          61.4192   92.3301    1.4259 O.2     1  UNL1       -0.2748
     41 H          58.3113   93.7027    2.2049 H       1  UNL1        0.1563
     42 C          60.0532   94.0777    0.0731 C.3     1  UNL1        0.0769
     43 C          59.1955   94.9186   -0.8254 C.3     1  UNL1        0.0096
     44 C          60.6642   94.7856   -1.0998 C.3     1  UNL1        0.0096
@<TRIPOS>BOND
     1     1     2    2
     2     2    23    1
     3    23    24    1
     4    24    26    1
     5    26    27   ar
     6    27    28   ar
     7    28    29   ar
     8    29    32    1
     9    32    33   ar
    10    33    34   ar
    11    34    35   ar
    12    35    38    1
    13    38    39   am
    14    39    40    2
    15    39    42    1
    16    42    43    1
    17    43    44    1
    18    35    36   ar
    19    36    37   ar
    20    29    30   ar
    21    30    31   ar
    22     2     3   am
    23     3     5    1
    24     5     6   ar
    25     6     7   ar
    26     7     8   ar
    27     8    15    1
    28    15    16    1
    29    16    17    1
    30    17    18    1
    31    18    19    1
    32    19    20    1
    33    20    21    1
    34     8     9   ar
    35     9    11    1
    36    11    12    1
    37    11    13    1
    38    11    14    1
    39     9    10   ar
    40    31    26   ar
    41    10     5   ar
    42    37    32   ar
    43    21    16    1
    44    44    42    1
    45    24    25    1
    46    38    41    1
    47     3     4    1
    48    19    22    1
@<TRIPOS>MOLECULE
*****
 44 48 0 0 0
SMALL
GASTEIGER

@<TRIPOS>ATOM
      1 O          59.8451   87.3631    7.8134 O.2     1  UNL1       -0.2729
      2 C          59.8112   88.8443    7.5791 C.2     1  UNL1        0.2461
      3 N          60.5536   89.7665    8.5002 N.am    1  UNL1       -0.2825
      4 H          60.5313   90.7387    8.3464 H       1  UNL1        0.1549
      5 C          61.3298   89.2075    9.6556 C.ar    1  UNL1        0.0503
      6 C          61.4993   87.7238    9.7976 C.ar    1  UNL1        0.0144
      7 C          62.2755   87.1648   10.9530 C.ar    1  UNL1       -0.0017
      8 C          62.8823   88.0894   11.9664 C.ar    1  UNL1       -0.0022
      9 C          62.7129   89.5730   11.8244 C.ar    1  UNL1        0.0700
     10 C          61.9366   90.1321   10.6690 C.ar    1  UNL1        0.0182
     11 C          63.3197   90.4976   12.8377 C.3     1  UNL1        0.4184
     12 F          63.9265   91.4222   13.8511 F       1  UNL1       -0.1659
     13 F          64.3459   90.9270   11.8315 F       1  UNL1       -0.1659
     14 F          62.2935   90.0682   13.8440 F       1  UNL1       -0.1659
     15 C          63.6585   87.5304   13.1217 C.3     1  UNL1        0.0992
     16 N          63.5114   86.0850   13.4950 N.3     1  UNL1       -0.2665
     17 C          63.8793   85.6255   14.8747 C.3     1  UNL1        0.0897
     18 C          63.7321   84.1802   15.2480 C.3     1  UNL1        0.0862
     19 N          63.2170   83.1943   14.2416 N.3     1  UNL1       -0.2951
     20 C          62.8491   83.6538   12.8619 C.3     1  UNL1        0.0862
     21 C          62.9963   85.0992   12.4887 C.3     1  UNL1        0.0897
     22 H          62.3803   82.7724   14.6444 H       1  UNL1        0.1233
     23 C          59.0349   89.4033    6.4237 C.3     1  UNL1        0.1739
     24 N          59.0409   90.8800    6.1604 N.pl3   1  UNL1       -0.3253
     25 H          58.5642   91.4903    6.7682 H       1  UNL1        0.1473
     26 C          59.7732   91.4268    4.9709 C.ar    1  UNL1        0.0450
     27 C          59.0755   92.3565    4.0229 C.ar    1  UNL1        0.0143
     28 C          59.8078   92.9032    2.8335 C.ar    1  UNL1        0.0013
     29 C          61.2379   92.5203    2.5921 C.ar    1  UNL1        0.0016
     30 C          61.9356   91.5906    3.5401 C.ar    1  UNL1        0.0013
     31 C          61.2033   91.0439    4.7295 C.ar    1  UNL1        0.0143
     32 C          61.9702   93.0671    1.4026 C.ar    1  UNL1        0.0193
     33 C          61.2033   93.6443    0.2500 C.ar    1  UNL1        0.0044
     34 C          61.9356   94.1911   -0.9395 C.ar    1  UNL1        0.0345
     35 C          63.4349   94.1607   -0.9762 C.ar    1  UNL1        0.1342
     36 N          64.2018   93.5835    0.1765 N.ar    1  UNL1       -0.2290
     37 C          63.4695   93.0367    1.3659 C.ar    1  UNL1        0.1003
     38 N          64.1672   94.7075   -2.1656 N.am    1  UNL1       -0.2694
     39 C          64.0722   94.0103   -3.4904 C.2     1  UNL1        0.2267
     40 O          63.2449   92.7665   -3.6257 O.2     1  UNL1       -0.2748
     41 H          64.7102   95.5239   -2.0768 H       1  UNL1        0.1563
     42 C          64.8045   94.5571   -4.6798 C.3     1  UNL1        0.0769
     43 C          65.4549   95.7081   -5.3886 C.3     1  UNL1        0.0096
     44 C          65.4226   94.3531   -6.0313 C.3     1  UNL1        0.0096
@<TRIPOS>BOND
     1     1     2    2
     2     2    23    1
     3    23    24    1
     4    24    26    1
     5    26    27   ar
     6    27    28   ar
     7    28    29   ar
     8    29    32    1
     9    32    33   ar
    10    33    34   ar
    11    34    35   ar
    12    35    38    1
    13    38    39   am
    14    39    40    2
    15    39    42    1
    16    42    43    1
    17    43    44    1
    18    35    36   ar
    19    36    37   ar
    20    29    30   ar
    21    30    31   ar
    22     2     3   am
    23     3     5    1
    24     5     6   ar
    25     6     7   ar
    26     7     8   ar
    27     8    15    1
    28    15    16    1
    29    16    17    1
    30    17    18    1
    31    18    19    1
    32    19    20    1
    33    20    21    1
    34     8     9   ar
    35     9    11    1
    36    11    12    1
    37    11    13    1
    38    11    14    1
    39     9    10   ar
    40    31    26   ar
    41    10     5   ar
    42    37    32   ar
    43    21    16    1
    44    44    42    1
    45    24    25    1
    46    38    41    1
    47     3     4    1
    48    19    22    1
@<TRIPOS>MOLECULE
*****
 44 48 0 0 0
SMALL
GASTEIGER

@<TRIPOS>ATOM
      1 O          58.6998   86.9507    7.4406 O.2     1  UNL1       -0.2729
      2 C          59.3641   88.2922    7.3460 C.2     1  UNL1        0.2461
      3 N          60.5143   88.6249    8.2496 N.am    1  UNL1       -0.2825
      4 H          60.9503   89.5054    8.1875 H       1  UNL1        0.1549
      5 C          61.0001   87.6160    9.2476 C.ar    1  UNL1        0.0503
      6 C          60.5443   87.6931   10.6747 C.ar    1  UNL1        0.0144
      7 C          61.0301   86.6843   11.6727 C.ar    1  UNL1       -0.0017
      8 C          61.9717   85.5983   11.2439 C.ar    1  UNL1       -0.0022
      9 C          62.4275   85.5211    9.8169 C.ar    1  UNL1        0.0700
     10 C          61.9417   86.5300    8.8187 C.ar    1  UNL1        0.0182
     11 C          63.3691   84.4351    9.3880 C.3     1  UNL1        0.4184
     12 F          64.3107   83.3491    8.9591 F       1  UNL1       -0.1659
     13 F          63.9168   84.3593   10.7824 F       1  UNL1       -0.1659
     14 F          62.8214   84.5109    7.9936 F       1  UNL1       -0.1659
     15 C          62.4575   84.5894   12.2419 C.3     1  UNL1        0.0992
     16 N          62.8553   85.0290   13.6198 N.3     1  UNL1       -0.2665
     17 C          63.9299   86.0604   13.7970 C.3     1  UNL1        0.0897
     18 C          64.3277   86.5000   15.1748 C.3     1  UNL1        0.0862
     19 N          63.6509   85.9082   16.3756 N.3     1  UNL1       -0.2951
     20 C          62.5762   84.8768   16.1984 C.3     1  UNL1        0.0862
     21 C          62.1784   84.4373   14.8205 C.3     1  UNL1        0.0897
     22 H          63.2330   86.6835   16.8900 H       1  UNL1        0.1233
     23 C          58.8783   89.3011    6.3479 C.3     1  UNL1        0.1739
     24 N          59.4221   90.6988    6.3688 N.pl3   1  UNL1       -0.3253
     25 H          59.3477   91.2438    7.1853 H       1  UNL1        0.1473
     26 C          60.0794   91.2663    5.1456 C.ar    1  UNL1        0.0450
     27 C          59.3551   92.2755    4.3049 C.ar    1  UNL1        0.0143
     28 C          60.0124   92.8429    3.0818 C.ar    1  UNL1        0.0013
     29 C          61.3938   92.4011    2.6994 C.ar    1  UNL1        0.0016
     30 C          62.1181   91.3918    3.5401 C.ar    1  UNL1        0.0013
     31 C          61.4609   90.8244    4.7632 C.ar    1  UNL1        0.0143
     32 C          62.0511   92.9685    1.4762 C.ar    1  UNL1        0.0193
     33 C          61.2134   93.4344    0.3225 C.ar    1  UNL1        0.0044
     34 C          61.8706   94.0019   -0.9007 C.ar    1  UNL1        0.0345
     35 C          63.3656   94.1034   -0.9701 C.ar    1  UNL1        0.1342
     36 N          64.2033   93.6376    0.1838 N.ar    1  UNL1       -0.2290
     37 C          63.5460   93.0701    1.4069 C.ar    1  UNL1        0.1003
     38 N          64.0228   94.6709   -2.1932 N.am    1  UNL1       -0.2694
     39 C          64.0843   93.8622   -3.4550 C.2     1  UNL1        0.2267
     40 O          63.4886   92.4861   -3.4937 O.2     1  UNL1       -0.2748
     41 H          64.4138   95.5740   -2.1677 H       1  UNL1        0.1563
     42 C          64.7416   94.4296   -4.6782 C.3     1  UNL1        0.0769
     43 C          65.4060   94.2279   -6.0077 C.3     1  UNL1        0.0096
     44 C          65.2155   95.6141   -5.4672 C.3     1  UNL1        0.0096
@<TRIPOS>BOND
     1     1     2    2
     2     2    23    1
     3    23    24    1
     4    24    26    1
     5    26    27   ar
     6    27    28   ar
     7    28    29   ar
     8    29    32    1
     9    32    33   ar
    10    33    34   ar
    11    34    35   ar
    12    35    38    1
    13    38    39   am
    14    39    40    2
    15    39    42    1
    16    42    43    1
    17    43    44    1
    18    35    36   ar
    19    36    37   ar
    20    29    30   ar
    21    30    31   ar
    22     2     3   am
    23     3     5    1
    24     5     6   ar
    25     6     7   ar
    26     7     8   ar
    27     8    15    1
    28    15    16    1
    29    16    17    1
    30    17    18    1
    31    18    19    1
    32    19    20    1
    33    20    21    1
    34     8     9   ar
    35     9    11    1
    36    11    12    1
    37    11    13    1
    38    11    14    1
    39     9    10   ar
    40    31    26   ar
    41    10     5   ar
    42    37    32   ar
    43    21    16    1
    44    44    42    1
    45    24    25    1
    46    38    41    1
    47     3     4    1
    48    19    22    1
@<TRIPOS>MOLECULE
*****
 44 48 0 0 0
SMALL
GASTEIGER

@<TRIPOS>ATOM
      1 O          66.3436   85.2234   14.5256 O.2     1  UNL1       -0.2729
      2 C          65.1107   84.5921   13.9499 C.2     1  UNL1        0.2461
      3 N          63.8889   85.4252   13.6988 N.am    1  UNL1       -0.2825
      4 H          63.0797   85.0109   13.3210 H       1  UNL1        0.1549
      5 C          63.9000   86.8896   14.0234 C.ar    1  UNL1        0.0503
      6 C          64.2434   87.3480   15.4098 C.ar    1  UNL1        0.0144
      7 C          64.2546   88.8124   15.7343 C.ar    1  UNL1       -0.0017
      8 C          63.9223   89.8185   14.6725 C.ar    1  UNL1       -0.0022
      9 C          63.5789   89.3602   13.2862 C.ar    1  UNL1        0.0700
     10 C          63.5678   87.8957   12.9616 C.ar    1  UNL1        0.0182
     11 C          63.2467   90.3662   12.2244 C.3     1  UNL1        0.4184
     12 F          62.9144   91.3723   11.1626 F       1  UNL1       -0.1659
     13 F          64.7091   90.5735   11.9632 F       1  UNL1       -0.1659
     14 F          61.7842   90.1590   12.4856 F       1  UNL1       -0.1659
     15 C          63.9335   91.2829   14.9971 C.3     1  UNL1        0.0992
     16 N          65.2165   92.0568   14.9273 N.3     1  UNL1       -0.2665
     17 C          65.7221   92.5531   13.6051 C.3     1  UNL1        0.0897
     18 C          67.0051   93.3270   13.5353 C.3     1  UNL1        0.0862
     19 N          67.7826   93.6047   14.7877 N.3     1  UNL1       -0.2951
     20 C          67.2771   93.1084   16.1099 C.3     1  UNL1        0.0862
     21 C          65.9940   92.3345   16.1796 C.3     1  UNL1        0.0897
     22 H          67.8638   94.6185   14.8652 H       1  UNL1        0.1233
     23 C          65.0996   83.1276   13.6254 C.3     1  UNL1        0.1739
     24 N          64.5021   82.6499   12.3352 N.pl3   1  UNL1       -0.3253
     25 H          64.6708   81.7308   12.0251 H       1  UNL1        0.1473
     26 C          63.6475   83.5724   11.5174 C.ar    1  UNL1        0.0450
     27 C          62.4679   84.2548   12.1441 C.ar    1  UNL1        0.0143
     28 C          61.6134   85.1772   11.3263 C.ar    1  UNL1        0.0013
     29 C          61.9384   85.4173    9.8818 C.ar    1  UNL1        0.0016
     30 C          63.1180   84.7348    9.2550 C.ar    1  UNL1        0.0013
     31 C          63.9725   83.8124   10.0728 C.ar    1  UNL1        0.0143
     32 C          61.0838   86.3398    9.0640 C.ar    1  UNL1        0.0193
     33 C          60.9903   87.7926    9.4250 C.ar    1  UNL1        0.0044
     34 C          60.1357   88.7151    8.6072 C.ar    1  UNL1        0.0345
     35 C          59.3747   88.1847    7.4284 C.ar    1  UNL1        0.1342
     36 N          59.4683   86.7317    7.0674 N.ar    1  UNL1       -0.2290
     37 C          60.3229   85.8093    7.8852 C.ar    1  UNL1        0.1003
     38 N          58.5201   89.1071    6.6106 N.am    1  UNL1       -0.2694
     39 C          59.1520   90.2259    5.8367 C.2     1  UNL1        0.2267
     40 O          60.6384   90.4222    5.8805 O.2     1  UNL1       -0.2748
     41 H          57.5445   88.9782    6.5818 H       1  UNL1        0.1563
     42 C          58.2974   91.1483    5.0188 C.3     1  UNL1        0.0769
     43 C          56.9622   91.7678    4.7302 C.3     1  UNL1        0.0096
     44 C          58.1525   92.1266    3.8910 C.3     1  UNL1        0.0096
@<TRIPOS>BOND
     1     1     2    2
     2     2    23    1
     3    23    24    1
     4    24    26    1
     5    26    27   ar
     6    27    28   ar
     7    28    29   ar
     8    29    32    1
     9    32    33   ar
    10    33    34   ar
    11    34    35   ar
    12    35    38    1
    13    38    39   am
    14    39    40    2
    15    39    42    1
    16    42    43    1
    17    43    44    1
    18    35    36   ar
    19    36    37   ar
    20    29    30   ar
    21    30    31   ar
    22     2     3   am
    23     3     5    1
    24     5     6   ar
    25     6     7   ar
    26     7     8   ar
    27     8    15    1
    28    15    16    1
    29    16    17    1
    30    17    18    1
    31    18    19    1
    32    19    20    1
    33    20    21    1
    34     8     9   ar
    35     9    11    1
    36    11    12    1
    37    11    13    1
    38    11    14    1
    39     9    10   ar
    40    31    26   ar
    41    10     5   ar
    42    37    32   ar
    43    21    16    1
    44    44    42    1
    45    24    25    1
    46    38    41    1
    47     3     4    1
    48    19    22    1
@<TRIPOS>MOLECULE
*****
 44 48 0 0 0
SMALL
GASTEIGER

@<TRIPOS>ATOM
      1 O          59.9646   85.3846    7.4340 O.2     1  UNL1       -0.2729
      2 C          60.0369   86.7861    7.9637 C.2     1  UNL1        0.2461
      3 N          60.9968   87.1227    9.0660 N.am    1  UNL1       -0.2825
      4 H          61.0442   88.0425    9.4136 H       1  UNL1        0.1549
      5 C          61.8844   86.0578    9.6388 C.ar    1  UNL1        0.0503
      6 C          62.6604   85.1565    8.7246 C.ar    1  UNL1        0.0144
      7 C          63.5480   84.0915    9.2974 C.ar    1  UNL1       -0.0017
      8 C          63.6596   83.9278   10.7842 C.ar    1  UNL1       -0.0022
      9 C          62.8837   84.8291   11.6983 C.ar    1  UNL1        0.0700
     10 C          61.9960   85.8941   11.1256 C.ar    1  UNL1        0.0182
     11 C          62.9954   84.6654   13.1852 C.3     1  UNL1        0.4184
     12 F          63.1070   84.5017   14.6720 F       1  UNL1       -0.1659
     13 F          61.9070   83.6336   13.1533 F       1  UNL1       -0.1659
     14 F          64.0837   85.6971   13.2170 F       1  UNL1       -0.1659
     15 C          64.5472   82.8629   11.3569 C.3     1  UNL1        0.0992
     16 N          63.9734   81.8178   12.2673 N.3     1  UNL1       -0.2665
     17 C          64.4270   81.7358   13.6947 C.3     1  UNL1        0.0897
     18 C          63.8533   80.6908   14.6051 C.3     1  UNL1        0.0862
     19 N          62.8259   79.7278   14.0880 N.3     1  UNL1       -0.2951
     20 C          62.3724   79.8098   12.6605 C.3     1  UNL1        0.0862
     21 C          62.9462   80.8549   11.7502 C.3     1  UNL1        0.0897
     22 H          61.9951   79.8440   14.6681 H       1  UNL1        0.1233
     23 C          59.1492   87.8510    7.3909 C.3     1  UNL1        0.1739
     24 N          59.0763   89.1987    8.0454 N.pl3   1  UNL1       -0.3253
     25 H          58.3465   89.8184    7.8161 H       1  UNL1        0.1473
     26 C          60.1154   89.6022    9.0492 C.ar    1  UNL1        0.0450
     27 C          61.4630   90.0710    8.5865 C.ar    1  UNL1        0.0143
     28 C          62.5020   90.4744    9.5903 C.ar    1  UNL1        0.0013
     29 C          62.1934   90.4092   11.0567 C.ar    1  UNL1        0.0016
     30 C          60.8458   89.9405   11.5194 C.ar    1  UNL1        0.0013
     31 C          59.8068   89.5370   10.5156 C.ar    1  UNL1        0.0143
     32 C          63.2325   90.8127   12.0605 C.ar    1  UNL1        0.0193
     33 C          63.4157   90.0101   13.3144 C.ar    1  UNL1        0.0044
     34 C          64.4548   90.4136   14.3182 C.ar    1  UNL1        0.0345
     35 C          65.3106   91.6198   14.0681 C.ar    1  UNL1        0.1342
     36 N          65.1274   92.4224   12.8141 N.ar    1  UNL1       -0.2290
     37 C          64.0884   92.0189   11.8104 C.ar    1  UNL1        0.1003
     38 N          66.3497   92.0233   15.0718 N.am    1  UNL1       -0.2694
     39 C          67.7028   92.4764   14.6096 C.2     1  UNL1        0.2267
     40 O          68.0169   92.5259   13.1437 O.2     1  UNL1       -0.2748
     41 H          66.1435   91.9908   16.0339 H       1  UNL1        0.1563
     42 C          68.7420   92.8800   15.6133 C.3     1  UNL1        0.0769
     43 C          69.6303   92.5379   16.7725 C.3     1  UNL1        0.0096
     44 C          69.6534   93.9210   16.1925 C.3     1  UNL1        0.0096
@<TRIPOS>BOND
     1     1     2    2
     2     2    23    1
     3    23    24    1
     4    24    26    1
     5    26    27   ar
     6    27    28   ar
     7    28    29   ar
     8    29    32    1
     9    32    33   ar
    10    33    34   ar
    11    34    35   ar
    12    35    38    1
    13    38    39   am
    14    39    40    2
    15    39    42    1
    16    42    43    1
    17    43    44    1
    18    35    36   ar
    19    36    37   ar
    20    29    30   ar
    21    30    31   ar
    22     2     3   am
    23     3     5    1
    24     5     6   ar
    25     6     7   ar
    26     7     8   ar
    27     8    15    1
    28    15    16    1
    29    16    17    1
    30    17    18    1
    31    18    19    1
    32    19    20    1
    33    20    21    1
    34     8     9   ar
    35     9    11    1
    36    11    12    1
    37    11    13    1
    38    11    14    1
    39     9    10   ar
    40    31    26   ar
    41    10     5   ar
    42    37    32   ar
    43    21    16    1
    44    44    42    1
    45    24    25    1
    46    38    41    1
    47     3     4    1
    48    19    22    1
@<TRIPOS>MOLECULE
*****
 44 48 0 0 0
SMALL
GASTEIGER

@<TRIPOS>ATOM
      1 O          61.0869   84.8345   15.2388 O.2     1  UNL1       -0.2729
      2 C          62.4702   84.9466   15.8080 C.2     1  UNL1        0.2461
      3 N          63.6625   84.8765   14.9007 N.am    1  UNL1       -0.2825
      4 H          64.5704   84.9501   15.2744 H       1  UNL1        0.1549
      5 C          63.4717   84.6943   13.4241 C.ar    1  UNL1        0.0503
      6 C          63.1787   85.8804   12.5538 C.ar    1  UNL1        0.0144
      7 C          62.9878   85.6982   11.0772 C.ar    1  UNL1       -0.0017
      8 C          63.0900   84.3300   10.4709 C.ar    1  UNL1       -0.0022
      9 C          63.3830   83.1440   11.3412 C.ar    1  UNL1        0.0700
     10 C          63.5738   83.3261   12.8179 C.ar    1  UNL1        0.0182
     11 C          63.4851   81.7758   10.7349 C.3     1  UNL1        0.4184
     12 F          63.5873   80.4076   10.1286 F       1  UNL1       -0.1659
     13 F          64.7051   82.2039    9.9744 F       1  UNL1       -0.1659
     14 F          62.2652   81.3477   11.4954 F       1  UNL1       -0.1659
     15 C          62.8991   84.1478    8.9943 C.3     1  UNL1        0.0992
     16 N          61.8275   84.9136    8.2764 N.3     1  UNL1       -0.2665
     17 C          61.6205   84.7131    6.8044 C.3     1  UNL1        0.0897
     18 C          60.5489   85.4788    6.0865 C.3     1  UNL1        0.0862
     19 N          59.6843   86.4451    6.8407 N.3     1  UNL1       -0.2951
     20 C          59.8912   86.6456    8.3127 C.3     1  UNL1        0.0862
     21 C          60.9629   85.8798    9.0306 C.3     1  UNL1        0.0897
     22 H          58.7203   86.1350    6.7184 H       1  UNL1        0.1233
     23 C          62.6610   85.1288   17.2847 C.3     1  UNL1        0.1739
     24 N          62.9937   86.4833   17.8365 N.pl3   1  UNL1       -0.3253
     25 H          62.9470   86.6447   18.8065 H       1  UNL1        0.1473
     26 C          63.3974   87.5920   16.9102 C.ar    1  UNL1        0.0450
     27 C          64.1947   87.2861   15.6770 C.ar    1  UNL1        0.0143
     28 C          64.5984   88.3948   14.7508 C.ar    1  UNL1        0.0013
     29 C          64.2049   89.8093   15.0579 C.ar    1  UNL1        0.0016
     30 C          63.4077   90.1152   16.2911 C.ar    1  UNL1        0.0013
     31 C          63.0040   89.0065   17.2172 C.ar    1  UNL1        0.0143
     32 C          64.6087   90.9180   14.1316 C.ar    1  UNL1        0.0193
     33 C          65.6999   91.8673   14.5290 C.ar    1  UNL1        0.0044
     34 C          66.1037   92.9760   13.6027 C.ar    1  UNL1        0.0345
     35 C          65.4162   93.1353   12.2791 C.ar    1  UNL1        0.1342
     36 N          64.3249   92.1859   11.8818 N.ar    1  UNL1       -0.2290
     37 C          63.9211   91.0773   12.8080 C.ar    1  UNL1        0.1003
     38 N          65.8199   94.2439   11.3529 N.am    1  UNL1       -0.2694
     39 C          66.7893   93.9759   10.2401 C.2     1  UNL1        0.2267
     40 O          67.3550   92.5992   10.0536 O.2     1  UNL1       -0.2748
     41 H          65.4486   95.1475   11.4754 H       1  UNL1        0.1563
     42 C          67.1931   95.0845    9.3138 C.3     1  UNL1        0.0769
     43 C          67.3781   95.6117    7.9218 C.3     1  UNL1        0.0096
     44 C          67.7074   96.4775    9.1015 C.3     1  UNL1        0.0096
@<TRIPOS>BOND
     1     1     2    2
     2     2    23    1
     3    23    24    1
     4    24    26    1
     5    26    27   ar
     6    27    28   ar
     7    28    29   ar
     8    29    32    1
     9    32    33   ar
    10    33    34   ar
    11    34    35   ar
    12    35    38    1
    13    38    39   am
    14    39    40    2
    15    39    42    1
    16    42    43    1
    17    43    44    1
    18    35    36   ar
    19    36    37   ar
    20    29    30   ar
    21    30    31   ar
    22     2     3   am
    23     3     5    1
    24     5     6   ar
    25     6     7   ar
    26     7     8   ar
    27     8    15    1
    28    15    16    1
    29    16    17    1
    30    17    18    1
    31    18    19    1
    32    19    20    1
    33    20    21    1
    34     8     9   ar
    35     9    11    1
    36    11    12    1
    37    11    13    1
    38    11    14    1
    39     9    10   ar
    40    31    26   ar
    41    10     5   ar
    42    37    32   ar
    43    21    16    1
    44    44    42    1
    45    24    25    1
    46    38    41    1
    47     3     4    1
    48    19    22    1
@<TRIPOS>MOLECULE
*****
 44 48 0 0 0
SMALL
GASTEIGER

@<TRIPOS>ATOM
      1 O          61.7829   84.7241   15.3013 O.2     1  UNL1       -0.2729
      2 C          63.1621   84.6051   15.8789 C.2     1  UNL1        0.2461
      3 N          64.1808   83.7282   15.2133 N.am    1  UNL1       -0.2825
      4 H          65.0861   83.6500   15.5924 H       1  UNL1        0.1549
      5 C          63.8204   82.9703   13.9701 C.ar    1  UNL1        0.0503
      6 C          63.4269   81.5255   14.0600 C.ar    1  UNL1        0.0144
      7 C          63.0665   80.7676   12.8168 C.ar    1  UNL1       -0.0017
      8 C          63.0995   81.4544   11.4836 C.ar    1  UNL1       -0.0022
      9 C          63.4929   82.8990   11.3937 C.ar    1  UNL1        0.0700
     10 C          63.8534   83.6570   12.6369 C.ar    1  UNL1        0.0182
     11 C          63.5259   83.5858   10.0605 C.3     1  UNL1        0.4184
     12 F          63.5589   84.2725    8.7274 F       1  UNL1       -0.1659
     13 F          62.3437   84.4182   10.4601 F       1  UNL1       -0.1659
     14 F          64.7081   82.7534    9.6610 F       1  UNL1       -0.1659
     15 C          62.7390   80.6965   10.2404 C.3     1  UNL1        0.0992
     16 N          63.0807   79.2405   10.1240 N.3     1  UNL1       -0.2665
     17 C          62.5052   78.2549   11.0974 C.3     1  UNL1        0.0897
     18 C          62.8469   76.7990   10.9811 C.3     1  UNL1        0.0862
     19 N          63.7641   76.3286    9.8912 N.3     1  UNL1       -0.2951
     20 C          64.3395   77.3142    8.9178 C.3     1  UNL1        0.0862
     21 C          63.9978   78.7702    9.0342 C.3     1  UNL1        0.0897
     22 H          63.2435   75.6435    9.3435 H       1  UNL1        0.1233
     23 C          63.5225   85.3631   17.1222 C.3     1  UNL1        0.1739
     24 N          63.0187   86.7619   17.3203 N.pl3   1  UNL1       -0.3253
     25 H          62.4472   86.9744   18.0932 H       1  UNL1        0.1473
     26 C          63.3856   87.8371   16.3407 C.ar    1  UNL1        0.0450
     27 C          64.0165   87.4734   15.0294 C.ar    1  UNL1        0.0143
     28 C          64.3835   88.5485   14.0499 C.ar    1  UNL1        0.0013
     29 C          64.1195   89.9873   14.3818 C.ar    1  UNL1        0.0016
     30 C          63.4886   90.3510   15.6931 C.ar    1  UNL1        0.0013
     31 C          63.1217   89.2759   16.6726 C.ar    1  UNL1        0.0143
     32 C          64.4864   91.0625   13.4022 C.ar    1  UNL1        0.0193
     33 C          65.4560   92.1370   13.7963 C.ar    1  UNL1        0.0044
     34 C          65.8230   93.2121   12.8167 C.ar    1  UNL1        0.0345
     35 C          65.2203   93.2127   11.4431 C.ar    1  UNL1        0.1342
     36 N          64.2506   92.1382   11.0491 N.ar    1  UNL1       -0.2290
     37 C          63.8837   91.0631   12.0286 C.ar    1  UNL1        0.1003
     38 N          65.5872   94.2878   10.4636 N.am    1  UNL1       -0.2694
     39 C          66.9652   94.3251    9.8723 C.2     1  UNL1        0.2267
     40 O          67.9763   93.2874   10.2606 O.2     1  UNL1       -0.2748
     41 H          64.9236   94.9689   10.2087 H       1  UNL1        0.1563
     42 C          67.3322   95.4002    8.8927 C.3     1  UNL1        0.0769
     43 C          67.7602   96.8100    8.6111 C.3     1  UNL1        0.0096
     44 C          67.5397   95.8526    7.4777 C.3     1  UNL1        0.0096
@<TRIPOS>BOND
     1     1     2    2
     2     2    23    1
     3    23    24    1
     4    24    26    1
     5    26    27   ar
     6    27    28   ar
     7    28    29   ar
     8    29    32    1
     9    32    33   ar
    10    33    34   ar
    11    34    35   ar
    12    35    38    1
    13    38    39   am
    14    39    40    2
    15    39    42    1
    16    42    43    1
    17    43    44    1
    18    35    36   ar
    19    36    37   ar
    20    29    30   ar
    21    30    31   ar
    22     2     3   am
    23     3     5    1
    24     5     6   ar
    25     6     7   ar
    26     7     8   ar
    27     8    15    1
    28    15    16    1
    29    16    17    1
    30    17    18    1
    31    18    19    1
    32    19    20    1
    33    20    21    1
    34     8     9   ar
    35     9    11    1
    36    11    12    1
    37    11    13    1
    38    11    14    1
    39     9    10   ar
    40    31    26   ar
    41    10     5   ar
    42    37    32   ar
    43    21    16    1
    44    44    42    1
    45    24    25    1
    46    38    41    1
    47     3     4    1
    48    19    22    1
@<TRIPOS>MOLECULE
*****
 44 48 0 0 0
SMALL
GASTEIGER

@<TRIPOS>ATOM
      1 O          63.2768   87.3670   10.3100 O.2     1  UNL1       -0.2729
      2 C          61.9593   87.3875   11.0268 C.2     1  UNL1        0.2461
      3 N          61.6226   88.5250   11.9448 N.am    1  UNL1       -0.2825
      4 H          60.7579   88.5385   12.4153 H       1  UNL1        0.1549
      5 C          62.6034   89.6419   12.1461 C.ar    1  UNL1        0.0503
      6 C          62.9870   90.5202   10.9921 C.ar    1  UNL1        0.0144
      7 C          63.9678   91.6371   11.1933 C.ar    1  UNL1       -0.0017
      8 C          64.5651   91.8757   12.5484 C.ar    1  UNL1       -0.0022
      9 C          64.1816   90.9975   13.7023 C.ar    1  UNL1        0.0700
     10 C          63.2007   89.8805   13.5012 C.ar    1  UNL1        0.0182
     11 C          64.7789   91.2361   15.0574 C.3     1  UNL1        0.4184
     12 F          65.3762   91.4747   16.4125 F       1  UNL1       -0.1659
     13 F          65.9819   90.4285   14.6694 F       1  UNL1       -0.1659
     14 F          63.5759   92.0437   15.4455 F       1  UNL1       -0.1659
     15 C          65.5459   92.9926   12.7496 C.3     1  UNL1        0.0992
     16 N          66.9725   92.6847   13.0962 N.3     1  UNL1       -0.2665
     17 C          67.8107   91.8631   12.1622 C.3     1  UNL1        0.0897
     18 C          69.2372   91.5551   12.5087 C.3     1  UNL1        0.0862
     19 N          69.8257   92.0688   13.7894 N.3     1  UNL1       -0.2951
     20 C          68.9875   92.8904   14.7234 C.3     1  UNL1        0.0862
     21 C          67.5609   93.1983   14.3768 C.3     1  UNL1        0.0897
     22 H          70.6304   92.6415   13.5348 H       1  UNL1        0.1233
     23 C          60.9785   86.2706   10.8256 C.3     1  UNL1        0.1739
     24 N          59.7163   86.5111   10.0516 N.pl3   1  UNL1       -0.3253
     25 H          58.9011   86.0041   10.2696 H       1  UNL1        0.1473
     26 C          59.6963   87.5242    8.9455 C.ar    1  UNL1        0.0450
     27 C          60.0197   88.9595    9.2372 C.ar    1  UNL1        0.0143
     28 C          59.9997   89.9725    8.1312 C.ar    1  UNL1        0.0013
     29 C          59.6563   89.5502    6.7334 C.ar    1  UNL1        0.0016
     30 C          59.3329   88.1148    6.4417 C.ar    1  UNL1        0.0013
     31 C          59.3529   87.1018    7.5478 C.ar    1  UNL1        0.0143
     32 C          59.6363   90.5632    5.6273 C.ar    1  UNL1        0.0193
     33 C          58.3360   91.1681    5.1877 C.ar    1  UNL1        0.0044
     34 C          58.3160   92.1812    4.0817 C.ar    1  UNL1        0.0345
     35 C          59.5963   92.5893    3.4152 C.ar    1  UNL1        0.1342
     36 N          60.8967   91.9844    3.8549 N.ar    1  UNL1       -0.2290
     37 C          60.9166   90.9714    4.9609 C.ar    1  UNL1        0.1003
     38 N          59.5763   93.6024    2.3092 N.am    1  UNL1       -0.2694
     39 C          59.8654   93.1793    0.8994 C.2     1  UNL1        0.2267
     40 O          60.1744   91.7433    0.5957 O.2     1  UNL1       -0.2748
     41 H          59.3735   94.5449    2.5085 H       1  UNL1        0.1563
     42 C          59.8454   94.1924   -0.2067 C.3     1  UNL1        0.0769
     43 C          59.0800   95.1008   -1.1225 C.3     1  UNL1        0.0096
     44 C          60.5763   95.0385   -1.2066 C.3     1  UNL1        0.0096
@<TRIPOS>BOND
     1     1     2    2
     2     2    23    1
     3    23    24    1
     4    24    26    1
     5    26    27   ar
     6    27    28   ar
     7    28    29   ar
     8    29    32    1
     9    32    33   ar
    10    33    34   ar
    11    34    35   ar
    12    35    38    1
    13    38    39   am
    14    39    40    2
    15    39    42    1
    16    42    43    1
    17    43    44    1
    18    35    36   ar
    19    36    37   ar
    20    29    30   ar
    21    30    31   ar
    22     2     3   am
    23     3     5    1
    24     5     6   ar
    25     6     7   ar
    26     7     8   ar
    27     8    15    1
    28    15    16    1
    29    16    17    1
    30    17    18    1
    31    18    19    1
    32    19    20    1
    33    20    21    1
    34     8     9   ar
    35     9    11    1
    36    11    12    1
    37    11    13    1
    38    11    14    1
    39     9    10   ar
    40    31    26   ar
    41    10     5   ar
    42    37    32   ar
    43    21    16    1
    44    44    42    1
    45    24    25    1
    46    38    41    1
    47     3     4    1
    48    19    22    1
