@<TRIPOS>MOLECULE
*****
 31 34 0 0 0
SMALL
GASTEIGER

@<TRIPOS>ATOM
      1 C          63.4424   86.8271   13.0202 C.ar    1  UNL1       -0.0100
      2 C          63.5329   88.3221   13.1032 C.ar    1  UNL1       -0.0075
      3 C          63.1623   89.1629   11.9175 C.ar    1  UNL1       -0.0200
      4 C          62.7013   88.5087   10.6489 C.ar    1  UNL1       -0.0045
      5 C          62.6108   87.0137   10.5658 C.ar    1  UNL1       -0.0035
      6 C          62.9814   86.1729   11.7514 C.ar    1  UNL1       -0.0036
      7 C          62.1497   86.3595    9.2971 C.2     1  UNL1       -0.0011
      8 C          63.0509   85.4003    8.5775 C.2     1  UNL1        0.0472
      9 C          62.5899   84.7461    7.3089 C.2     1  UNL1        0.2354
     10 N          61.2278   85.0512    6.7598 N.2     1  UNL1       -0.0320
     11 C          60.3266   86.0105    7.4794 C.2     1  UNL1        0.3872
     12 N          58.9414   86.5026    7.1809 N.2     1  UNL1        0.0820
     13 N          58.5463   87.4608    8.2652 N.2     1  UNL1       -0.0337
     14 C          59.6873   87.5610    9.2337 C.2     1  UNL1        0.1921
     15 C          60.7876   86.6646    8.7481 C.3     1  UNL1        0.1845
     16 C          59.7220   88.4087   10.4707 C.3     1  UNL1        0.4355
     17 F          59.7567   89.2565   11.7077 F       1  UNL1       -0.1645
     18 F          59.7547   89.6453    9.6223 F       1  UNL1       -0.1645
     19 F          59.7010   87.5135   11.4809 F       1  UNL1       -0.1645
     20 C          63.8130   85.9863   14.2058 C.3     1  UNL1        0.0980
     21 C          64.3878   85.6021   15.5369 C.3     1  UNL1        0.0196
     22 C          64.5297   87.0091   15.0366 C.3     1  UNL1        0.0196
     23 N          62.6370   83.3567   13.3677 N.1     1  UNL1       -0.1956
     24 C          63.2250   84.6715   13.7867 C.1     1  UNL1        0.0752
     25 C          63.2527   90.6578   12.0005 C.3     1  UNL1        0.0581
     26 C          63.9722   91.3031   13.1478 C.3     1  UNL1        0.1440
     27 O          63.3422   91.3292   14.5088 O.3     1  UNL1       -0.3816
     28 H          62.4782   90.8897   14.4736 H       1  UNL1        0.2105
     29 C          65.3216   91.9223   12.9339 C.3     1  UNL1        0.1666
     30 O          65.8204   92.9775   13.8760 O.3     1  UNL1       -0.3795
     31 H          65.2646   93.7688   13.7988 H       1  UNL1        0.2105
@<TRIPOS>BOND
     1    23    24    3
     2    24    20    1
     3    20     1    1
     4     1     2   ar
     5     2     3   ar
     6     3    25    1
     7    25    26    1
     8    26    27    1
     9    26    29    1
    10    29    30    1
    11     3     4   ar
    12     4     5   ar
    13     5     7    1
    14     7     8    2
    15     8     9    1
    16     9    10    2
    17    10    11    1
    18    11    12    2
    19    12    13    1
    20    13    14    2
    21    14    16    1
    22    16    17    1
    23    16    18    1
    24    16    19    1
    25    14    15    1
    26     5     6   ar
    27    20    21    1
    28    21    22    1
    29    22    20    1
    30     6     1   ar
    31    15     7    1
    32    15    11    1
    33    27    28    1
    34    30    31    1
@<TRIPOS>MOLECULE
*****
 31 34 0 0 0
SMALL
GASTEIGER

@<TRIPOS>ATOM
      1 C          65.4361   91.0027   14.1118 C.ar    1  UNL1       -0.0100
      2 C          64.6138   91.4418   12.9367 C.ar    1  UNL1       -0.0075
      3 C          63.6251   90.4981   12.3186 C.ar    1  UNL1       -0.0200
      4 C          63.4588   89.1154   12.8756 C.ar    1  UNL1       -0.0045
      5 C          64.2811   88.6762   14.0507 C.ar    1  UNL1       -0.0035
      6 C          65.2698   89.6199   14.6688 C.ar    1  UNL1       -0.0036
      7 C          64.1148   87.2934   14.6077 C.2     1  UNL1       -0.0011
      8 C          64.5883   86.1065   13.8221 C.2     1  UNL1        0.0472
      9 C          64.4220   84.7237   14.3791 C.2     1  UNL1        0.2354
     10 N          63.7822   84.5279   15.7216 N.2     1  UNL1       -0.0320
     11 C          63.3088   85.7148   16.5071 C.2     1  UNL1        0.3872
     12 N          62.6461   85.8316   17.8478 N.2     1  UNL1        0.0820
     13 N          62.4029   87.2866   18.1194 N.2     1  UNL1       -0.0337
     14 C          62.9152   88.0690   16.9466 C.2     1  UNL1        0.1921
     15 C          63.4751   87.0975   15.9502 C.3     1  UNL1        0.1845
     16 C          62.8748   89.5609   16.7966 C.3     1  UNL1        0.4355
     17 F          62.8343   91.0529   16.6465 F       1  UNL1       -0.1645
     18 F          61.7388   89.4325   15.8255 F       1  UNL1       -0.1645
     19 F          63.8580   89.9980   17.6119 F       1  UNL1       -0.1645
     20 C          66.4247   91.9464   14.7299 C.3     1  UNL1        0.0980
     21 C          67.0316   92.9146   15.7016 C.3     1  UNL1        0.0196
     22 C          65.6687   92.3449   15.9627 C.3     1  UNL1        0.0196
     23 N          68.6234   91.8049   12.6937 N.1     1  UNL1       -0.1956
     24 C          67.5240   91.8756   13.7119 C.1     1  UNL1        0.0752
     25 C          62.8027   90.9372   11.1434 C.3     1  UNL1        0.0581
     26 C          61.4513   90.3312   10.9053 C.3     1  UNL1        0.1440
     27 O          60.3123   90.6530   11.8267 O.3     1  UNL1       -0.3816
     28 H          60.6171   91.2622   12.5172 H       1  UNL1        0.2105
     29 C          61.2391   89.4035    9.7459 C.3     1  UNL1        0.1666
     30 O          60.2239   89.7381    8.6937 O.3     1  UNL1       -0.3795
     31 H          59.3357   89.7171    9.0830 H       1  UNL1        0.2105
@<TRIPOS>BOND
     1    23    24    3
     2    24    20    1
     3    20     1    1
     4     1     2   ar
     5     2     3   ar
     6     3    25    1
     7    25    26    1
     8    26    27    1
     9    26    29    1
    10    29    30    1
    11     3     4   ar
    12     4     5   ar
    13     5     7    1
    14     7     8    2
    15     8     9    1
    16     9    10    2
    17    10    11    1
    18    11    12    2
    19    12    13    1
    20    13    14    2
    21    14    16    1
    22    16    17    1
    23    16    18    1
    24    16    19    1
    25    14    15    1
    26     5     6   ar
    27    20    21    1
    28    21    22    1
    29    22    20    1
    30     6     1   ar
    31    15     7    1
    32    15    11    1
    33    27    28    1
    34    30    31    1
@<TRIPOS>MOLECULE
*****
 31 34 0 0 0
SMALL
GASTEIGER

@<TRIPOS>ATOM
      1 C          63.2503   88.7443   12.1913 C.ar    1  UNL1       -0.0100
      2 C          63.5711   87.7935   13.3063 C.ar    1  UNL1       -0.0075
      3 C          63.4006   86.3168   13.1051 C.ar    1  UNL1       -0.0200
      4 C          62.9093   85.7910   11.7890 C.ar    1  UNL1       -0.0045
      5 C          62.5885   86.7417   10.6741 C.ar    1  UNL1       -0.0035
      6 C          62.7590   88.2184   10.8752 C.ar    1  UNL1       -0.0036
      7 C          62.0972   86.2158    9.3579 C.2     1  UNL1       -0.0011
      8 C          62.9373   85.2506    8.5753 C.2     1  UNL1        0.0472
      9 C          62.4461   84.7247    7.2592 C.2     1  UNL1        0.2354
     10 N          61.1148   85.1640    6.7258 N.2     1  UNL1       -0.0320
     11 C          60.2748   86.1293    7.5084 C.2     1  UNL1        0.3872
     12 N          58.9306   86.7381    7.2385 N.2     1  UNL1        0.0820
     13 N          58.5911   87.6402    8.3878 N.2     1  UNL1       -0.0337
     14 C          59.7255   87.5890    9.3680 C.2     1  UNL1        0.1921
     15 C          60.7660   86.6552    8.8245 C.3     1  UNL1        0.1845
     16 C          59.8053   88.3397   10.6641 C.3     1  UNL1        0.4355
     17 F          59.8851   89.0906   11.9603 F       1  UNL1       -0.1645
     18 F          59.8101   89.6376    9.9121 F       1  UNL1       -0.1645
     19 F          59.8184   87.3699   11.6031 F       1  UNL1       -0.1645
     20 C          63.4207   90.2209   12.3925 C.3     1  UNL1        0.0980
     21 C          63.6056   91.6748   12.0734 C.3     1  UNL1        0.0196
     22 C          63.5215   90.6684   10.9643 C.3     1  UNL1        0.0196
     23 N          63.3374   90.3516   15.3885 N.1     1  UNL1       -0.1956
     24 C          63.3791   90.2862   13.8904 C.1     1  UNL1        0.0752
     25 C          63.7214   85.3660   14.2200 C.3     1  UNL1        0.0581
     26 C          64.7721   84.3127   14.0285 C.3     1  UNL1        0.1440
     27 O          66.1729   84.5550   14.5068 O.3     1  UNL1       -0.3816
     28 H          66.2283   85.4341   14.9131 H       1  UNL1        0.2105
     29 C          64.4219   83.0171   13.3587 C.3     1  UNL1        0.1666
     30 O          65.0356   82.6669   12.0355 O.3     1  UNL1       -0.3795
     31 H          64.7233   83.2887   11.3596 H       1  UNL1        0.2105
@<TRIPOS>BOND
     1    23    24    3
     2    24    20    1
     3    20     1    1
     4     1     2   ar
     5     2     3   ar
     6     3    25    1
     7    25    26    1
     8    26    27    1
     9    26    29    1
    10    29    30    1
    11     3     4   ar
    12     4     5   ar
    13     5     7    1
    14     7     8    2
    15     8     9    1
    16     9    10    2
    17    10    11    1
    18    11    12    2
    19    12    13    1
    20    13    14    2
    21    14    16    1
    22    16    17    1
    23    16    18    1
    24    16    19    1
    25    14    15    1
    26     5     6   ar
    27    20    21    1
    28    21    22    1
    29    22    20    1
    30     6     1   ar
    31    15     7    1
    32    15    11    1
    33    27    28    1
    34    30    31    1
@<TRIPOS>MOLECULE
*****
 31 34 0 0 0
SMALL
GASTEIGER

@<TRIPOS>ATOM
      1 C          63.2849   88.5428   12.2084 C.ar    1  UNL1       -0.0100
      2 C          63.5159   87.5518   13.3105 C.ar    1  UNL1       -0.0075
      3 C          63.2632   86.0926   13.0721 C.ar    1  UNL1       -0.0200
      4 C          62.7794   85.6244   11.7318 C.ar    1  UNL1       -0.0045
      5 C          62.5483   86.6153   10.6297 C.ar    1  UNL1       -0.0035
      6 C          62.8011   88.0745   10.8679 C.ar    1  UNL1       -0.0036
      7 C          62.0645   86.1470    9.2892 C.2     1  UNL1       -0.0011
      8 C          62.8927   85.1885    8.4859 C.2     1  UNL1        0.0472
      9 C          62.4090   84.7202    7.1455 C.2     1  UNL1        0.2354
     10 N          61.0971   85.2104    6.6085 N.2     1  UNL1       -0.0320
     11 C          60.2689   86.1690    7.4118 C.2     1  UNL1        0.3872
     12 N          58.9442   86.8198    7.1437 N.2     1  UNL1        0.0820
     13 N          58.6093   87.6903    8.3185 N.2     1  UNL1       -0.0337
     14 C          59.7270   87.5775    9.3125 C.2     1  UNL1        0.1921
     15 C          60.7526   86.6373    8.7522 C.3     1  UNL1        0.1845
     16 C          59.8052   88.2813   10.6348 C.3     1  UNL1        0.4355
     17 F          59.8835   88.9852   11.9571 F       1  UNL1       -0.1645
     18 F          59.7932   89.6057    9.9306 F       1  UNL1       -0.1645
     19 F          59.8328   87.2781   11.5378 F       1  UNL1       -0.1645
     20 C          63.5376   90.0020   12.4467 C.3     1  UNL1        0.0980
     21 C          63.9420   91.2670   13.1440 C.3     1  UNL1        0.0196
     22 C          64.0620   89.9496   13.8511 C.3     1  UNL1        0.0196
     23 N          62.6645   91.1204    9.8034 N.1     1  UNL1       -0.1956
     24 C          63.1011   90.5612   11.1251 C.1     1  UNL1        0.0752
     25 C          63.4942   85.1016   14.1742 C.3     1  UNL1        0.0581
     26 C          64.2420   85.5127   15.4079 C.3     1  UNL1        0.1440
     27 O          65.7325   85.6748   15.3624 O.3     1  UNL1       -0.3816
     28 H          66.0520   85.4774   14.4680 H       1  UNL1        0.2105
     29 C          63.4992   85.7617   16.6871 C.3     1  UNL1        0.1666
     30 O          62.0108   85.5829   16.7371 O.3     1  UNL1       -0.3795
     31 H          61.5862   86.2464   16.1711 H       1  UNL1        0.2105
@<TRIPOS>BOND
     1    23    24    3
     2    24    20    1
     3    20     1    1
     4     1     2   ar
     5     2     3   ar
     6     3    25    1
     7    25    26    1
     8    26    27    1
     9    26    29    1
    10    29    30    1
    11     3     4   ar
    12     4     5   ar
    13     5     7    1
    14     7     8    2
    15     8     9    1
    16     9    10    2
    17    10    11    1
    18    11    12    2
    19    12    13    1
    20    13    14    2
    21    14    16    1
    22    16    17    1
    23    16    18    1
    24    16    19    1
    25    14    15    1
    26     5     6   ar
    27    20    21    1
    28    21    22    1
    29    22    20    1
    30     6     1   ar
    31    15     7    1
    32    15    11    1
    33    27    28    1
    34    30    31    1
@<TRIPOS>MOLECULE
*****
 31 34 0 0 0
SMALL
GASTEIGER

@<TRIPOS>ATOM
      1 C          62.5484   89.3096   11.3517 C.ar    1  UNL1       -0.0100
      2 C          61.2580   89.2052   10.5941 C.ar    1  UNL1       -0.0075
      3 C          60.5797   87.8753   10.4477 C.ar    1  UNL1       -0.0200
      4 C          61.1917   86.6499   11.0590 C.ar    1  UNL1       -0.0045
      5 C          62.4821   86.7543   11.8167 C.ar    1  UNL1       -0.0035
      6 C          63.1604   88.0841   11.9631 C.ar    1  UNL1       -0.0036
      7 C          63.0941   85.5288   12.4280 C.2     1  UNL1       -0.0011
      8 C          63.2965   85.4524   13.9123 C.2     1  UNL1        0.0472
      9 C          63.9085   84.2270   14.5237 C.2     1  UNL1        0.2354
     10 N          64.3181   83.0780   13.6507 N.2     1  UNL1       -0.0320
     11 C          64.1157   83.1545   12.1664 C.2     1  UNL1        0.3872
     12 N          64.4187   82.1869   11.0609 N.2     1  UNL1        0.0820
     13 N          63.9939   82.8143    9.7664 N.2     1  UNL1       -0.0337
     14 C          63.4284   84.1697   10.0718 C.2     1  UNL1        0.1921
     15 C          63.5037   84.3799   11.5551 C.3     1  UNL1        0.1845
     16 C          62.8833   85.1438    9.0698 C.3     1  UNL1        0.4355
     17 F          62.3381   86.1179    8.0678 F       1  UNL1       -0.1645
     18 F          61.4859   84.7546    9.4516 F       1  UNL1       -0.1645
     19 F          63.9849   85.6958    8.5182 F       1  UNL1       -0.1645
     20 C          63.2267   90.6394   11.4981 C.3     1  UNL1        0.0980
     21 C          63.8641   91.9452   11.1257 C.3     1  UNL1        0.0196
     22 C          63.3445   91.0319   10.0551 C.3     1  UNL1        0.0196
     23 N          63.4621   90.7782   14.4857 N.1     1  UNL1       -0.1956
     24 C          63.3444   90.7088   12.9918 C.1     1  UNL1        0.0752
     25 C          59.2893   87.7709    9.6900 C.3     1  UNL1        0.0581
     26 C          59.3060   87.6215    8.1975 C.3     1  UNL1        0.1440
     27 O          59.0363   86.2838    7.5747 O.3     1  UNL1       -0.3816
     28 H          58.8715   85.6299    8.2719 H       1  UNL1        0.2105
     29 C          59.5923   88.8097    7.3279 C.3     1  UNL1        0.1666
     30 O          58.5949   89.2398    6.2935 O.3     1  UNL1       -0.3795
     31 H          58.5201   88.5539    5.6116 H       1  UNL1        0.2105
@<TRIPOS>BOND
     1    23    24    3
     2    24    20    1
     3    20     1    1
     4     1     2   ar
     5     2     3   ar
     6     3    25    1
     7    25    26    1
     8    26    27    1
     9    26    29    1
    10    29    30    1
    11     3     4   ar
    12     4     5   ar
    13     5     7    1
    14     7     8    2
    15     8     9    1
    16     9    10    2
    17    10    11    1
    18    11    12    2
    19    12    13    1
    20    13    14    2
    21    14    16    1
    22    16    17    1
    23    16    18    1
    24    16    19    1
    25    14    15    1
    26     5     6   ar
    27    20    21    1
    28    21    22    1
    29    22    20    1
    30     6     1   ar
    31    15     7    1
    32    15    11    1
    33    27    28    1
    34    30    31    1
@<TRIPOS>MOLECULE
*****
 31 34 0 0 0
SMALL
GASTEIGER

@<TRIPOS>ATOM
      1 C          62.3440   86.7184   11.4140 C.ar    1  UNL1       -0.0100
      2 C          63.1724   87.5030   12.3877 C.ar    1  UNL1       -0.0075
      3 C          63.7713   86.8218   13.5824 C.ar    1  UNL1       -0.0200
      4 C          63.5419   85.3561   13.8034 C.ar    1  UNL1       -0.0045
      5 C          62.7136   84.5714   12.8297 C.ar    1  UNL1       -0.0035
      6 C          62.1146   85.2525   11.6350 C.ar    1  UNL1       -0.0036
      7 C          62.4842   83.1056   13.0507 C.2     1  UNL1       -0.0011
      8 C          61.8837   82.6263   14.3390 C.2     1  UNL1        0.0472
      9 C          61.6542   81.1606   14.5601 C.2     1  UNL1        0.2354
     10 N          62.0253   80.1741   13.4928 N.2     1  UNL1       -0.0320
     11 C          62.6258   80.6533   12.2045 C.2     1  UNL1        0.3872
     12 N          63.0884   79.9218   10.9794 N.2     1  UNL1        0.0820
     13 N          63.6038   80.9354   10.0012 N.2     1  UNL1       -0.0337
     14 C          63.4596   82.2935   10.6217 C.2     1  UNL1        0.1921
     15 C          62.8552   82.1191   11.9834 C.3     1  UNL1        0.1845
     16 C          63.8511   83.5970    9.9913 C.3     1  UNL1        0.4355
     17 F          64.2427   84.9006    9.3608 F       1  UNL1       -0.1645
     18 F          65.0150   83.7022   10.9316 F       1  UNL1       -0.1645
     19 F          62.9200   83.7890    9.0328 F       1  UNL1       -0.1645
     20 C          61.7450   87.3995   10.2193 C.3     1  UNL1        0.0980
     21 C          60.9528   87.6009    8.9616 C.3     1  UNL1        0.0196
     22 C          60.9804   86.2549    9.6231 C.3     1  UNL1        0.0196
     23 N          62.8580   90.1617   10.5818 N.1     1  UNL1       -0.1956
     24 C          62.3015   88.7805   10.4006 C.1     1  UNL1        0.0752
     25 C          64.5997   87.6065   14.5561 C.3     1  UNL1        0.0581
     26 C          64.2337   89.0247   14.8800 C.3     1  UNL1        0.1440
     27 O          64.8283   90.1521   14.0893 O.3     1  UNL1       -0.3816
     28 H          65.4235   89.7936   13.4124 H       1  UNL1        0.2105
     29 C          63.2730   89.3154   15.9948 C.3     1  UNL1        0.1666
     30 O          63.2359   90.6801   16.6161 O.3     1  UNL1       -0.3795
     31 H          64.0734   90.8491   17.0754 H       1  UNL1        0.2105
@<TRIPOS>BOND
     1    23    24    3
     2    24    20    1
     3    20     1    1
     4     1     2   ar
     5     2     3   ar
     6     3    25    1
     7    25    26    1
     8    26    27    1
     9    26    29    1
    10    29    30    1
    11     3     4   ar
    12     4     5   ar
    13     5     7    1
    14     7     8    2
    15     8     9    1
    16     9    10    2
    17    10    11    1
    18    11    12    2
    19    12    13    1
    20    13    14    2
    21    14    16    1
    22    16    17    1
    23    16    18    1
    24    16    19    1
    25    14    15    1
    26     5     6   ar
    27    20    21    1
    28    21    22    1
    29    22    20    1
    30     6     1   ar
    31    15     7    1
    32    15    11    1
    33    27    28    1
    34    30    31    1
@<TRIPOS>MOLECULE
*****
 31 34 0 0 0
SMALL
GASTEIGER

@<TRIPOS>ATOM
      1 C          62.3068   87.4574   11.3827 C.ar    1  UNL1       -0.0100
      2 C          63.0121   88.0482   12.5673 C.ar    1  UNL1       -0.0075
      3 C          63.7725   87.1601   13.5072 C.ar    1  UNL1       -0.0200
      4 C          63.8275   85.6813   13.2623 C.ar    1  UNL1       -0.0045
      5 C          63.1222   85.0905   12.0776 C.ar    1  UNL1       -0.0035
      6 C          62.3618   85.9785   11.1378 C.ar    1  UNL1       -0.0036
      7 C          63.1772   83.6116   11.8328 C.2     1  UNL1       -0.0011
      8 C          63.5277   83.0894   10.4710 C.2     1  UNL1        0.0472
      9 C          63.5827   81.6106   10.2261 C.2     1  UNL1        0.2354
     10 N          63.2874   80.6539   11.3430 N.2     1  UNL1       -0.0320
     11 C          62.9369   81.1761   12.7048 C.2     1  UNL1        0.3872
     12 N          62.5993   80.4805   13.9902 N.2     1  UNL1        0.0820
     13 N          62.3356   81.5295   15.0295 N.2     1  UNL1       -0.0337
     14 C          62.5102   82.8733   14.3864 C.2     1  UNL1        0.1921
     15 C          62.8819   82.6549   12.9497 C.3     1  UNL1        0.1845
     16 C          62.3427   84.2023   15.0615 C.3     1  UNL1        0.4355
     17 F          62.1751   85.5313   15.7367 F       1  UNL1       -0.1645
     18 F          63.6960   84.0532   15.6910 F       1  UNL1       -0.1645
     19 F          61.1244   84.6219   14.6589 F       1  UNL1       -0.1645
     20 C          61.5464   88.3454   10.4429 C.3     1  UNL1        0.0980
     21 C          60.5567   88.7769    9.4017 C.3     1  UNL1        0.0196
     22 C          60.6218   87.3391    9.8244 C.3     1  UNL1        0.0196
     23 N          62.8675   90.9748   11.0270 N.1     1  UNL1       -0.1956
     24 C          62.2070   89.6601   10.7349 C.1     1  UNL1        0.0752
     25 C          64.4779   87.7509   14.6918 C.3     1  UNL1        0.0581
     26 C          63.8812   88.9239   15.4117 C.3     1  UNL1        0.1440
     27 O          62.9159   88.7008   16.5379 O.3     1  UNL1       -0.3816
     28 H          62.7880   87.7485   16.6703 H       1  UNL1        0.2105
     29 C          64.2500   90.3200   15.0054 C.3     1  UNL1        0.1666
     30 O          63.2814   91.1528   14.2192 O.3     1  UNL1       -0.3795
     31 H          63.1521   90.7575   13.3429 H       1  UNL1        0.2105
@<TRIPOS>BOND
     1    23    24    3
     2    24    20    1
     3    20     1    1
     4     1     2   ar
     5     2     3   ar
     6     3    25    1
     7    25    26    1
     8    26    27    1
     9    26    29    1
    10    29    30    1
    11     3     4   ar
    12     4     5   ar
    13     5     7    1
    14     7     8    2
    15     8     9    1
    16     9    10    2
    17    10    11    1
    18    11    12    2
    19    12    13    1
    20    13    14    2
    21    14    16    1
    22    16    17    1
    23    16    18    1
    24    16    19    1
    25    14    15    1
    26     5     6   ar
    27    20    21    1
    28    21    22    1
    29    22    20    1
    30     6     1   ar
    31    15     7    1
    32    15    11    1
    33    27    28    1
    34    30    31    1
@<TRIPOS>MOLECULE
*****
 31 34 0 0 0
SMALL
GASTEIGER

@<TRIPOS>ATOM
      1 C          63.5593   89.0206   12.9060 C.ar    1  UNL1       -0.0100
      2 C          63.8509   90.4206   12.4531 C.ar    1  UNL1       -0.0075
      3 C          63.6150   90.8111   11.0241 C.ar    1  UNL1       -0.0200
      4 C          63.0876   89.8017   10.0481 C.ar    1  UNL1       -0.0045
      5 C          62.7960   88.4017   10.5009 C.ar    1  UNL1       -0.0035
      6 C          63.0318   88.0112   11.9298 C.ar    1  UNL1       -0.0036
      7 C          62.2685   87.3922    9.5247 C.2     1  UNL1       -0.0011
      8 C          63.1699   86.3142    8.9999 C.2     1  UNL1        0.0472
      9 C          62.6426   85.3048    8.0238 C.2     1  UNL1        0.2354
     10 N          61.2138   85.3734    7.5724 N.2     1  UNL1       -0.0320
     11 C          60.3123   86.4514    8.0972 C.2     1  UNL1        0.3872
     12 N          58.8698   86.7690    7.8358 N.2     1  UNL1        0.0820
     13 N          58.5057   87.9747    8.6504 N.2     1  UNL1       -0.0337
     14 C          59.7232   88.4023    9.4152 C.2     1  UNL1        0.1921
     15 C          60.8397   87.4608    9.0733 C.3     1  UNL1        0.1845
     16 C          59.8090   89.5668   10.3567 C.3     1  UNL1        0.4355
     17 F          59.8949   90.7315   11.2981 F       1  UNL1       -0.1645
     18 F          60.0311   90.4895    9.1951 F       1  UNL1       -0.1645
     19 F          59.6338   89.0148   11.5761 F       1  UNL1       -0.1645
     20 C          63.7951   88.6301   14.3349 C.3     1  UNL1        0.0980
     21 C          64.0805   87.7748   15.5336 C.3     1  UNL1        0.0196
     22 C          64.0197   87.1563   14.1684 C.3     1  UNL1        0.0196
     23 N          63.5096   91.3062   15.6604 N.1     1  UNL1       -0.1956
     24 C          63.6524   89.9681   14.9976 C.1     1  UNL1        0.0752
     25 C          63.9066   92.2111   10.5713 C.3     1  UNL1        0.0581
     26 C          65.2898   92.7733   10.7158 C.3     1  UNL1        0.1440
     27 O          66.4828   91.9201   10.4016 O.3     1  UNL1       -0.3816
     28 H          66.1862   91.0401   10.1215 H       1  UNL1        0.2105
     29 C          65.4799   94.1887   11.1746 C.3     1  UNL1        0.1666
     30 O          65.0673   95.3263   10.2883 O.3     1  UNL1       -0.3795
     31 H          65.6250   95.3366    9.4947 H       1  UNL1        0.2105
@<TRIPOS>BOND
     1    23    24    3
     2    24    20    1
     3    20     1    1
     4     1     2   ar
     5     2     3   ar
     6     3    25    1
     7    25    26    1
     8    26    27    1
     9    26    29    1
    10    29    30    1
    11     3     4   ar
    12     4     5   ar
    13     5     7    1
    14     7     8    2
    15     8     9    1
    16     9    10    2
    17    10    11    1
    18    11    12    2
    19    12    13    1
    20    13    14    2
    21    14    16    1
    22    16    17    1
    23    16    18    1
    24    16    19    1
    25    14    15    1
    26     5     6   ar
    27    20    21    1
    28    21    22    1
    29    22    20    1
    30     6     1   ar
    31    15     7    1
    32    15    11    1
    33    27    28    1
    34    30    31    1
@<TRIPOS>MOLECULE
*****
 31 34 0 0 0
SMALL
GASTEIGER

@<TRIPOS>ATOM
      1 C          63.7305   86.8899   13.5585 C.ar    1  UNL1       -0.0100
      2 C          62.8052   86.9607   12.3800 C.ar    1  UNL1       -0.0075
      3 C          62.5724   88.2705   11.6869 C.ar    1  UNL1       -0.0200
      4 C          63.2649   89.5094   12.1723 C.ar    1  UNL1       -0.0045
      5 C          64.1902   89.4386   13.3508 C.ar    1  UNL1       -0.0035
      6 C          64.4230   88.1289   14.0439 C.ar    1  UNL1       -0.0036
      7 C          64.8826   90.6775   13.8362 C.2     1  UNL1       -0.0011
      8 C          65.8786   91.3735   12.9566 C.2     1  UNL1        0.0472
      9 C          66.5711   92.6124   13.4419 C.2     1  UNL1        0.2354
     10 N          66.2675   93.1553   14.8068 N.2     1  UNL1       -0.0320
     11 C          65.2715   92.4594   15.6864 C.2     1  UNL1        0.3872
     12 N          64.7720   92.7584   17.0689 N.2     1  UNL1        0.0820
     13 N          63.7708   91.7042   17.4379 N.2     1  UNL1       -0.0337
     14 C          63.6515   90.7537   16.2836 C.2     1  UNL1        0.1921
     15 C          64.5791   91.2205   15.2011 C.3     1  UNL1        0.1845
     16 C          62.7611   89.5482   16.2224 C.3     1  UNL1        0.4355
     17 F          61.8707   88.3425   16.1613 F       1  UNL1       -0.1645
     18 F          63.4747   88.9612   17.4041 F       1  UNL1       -0.1645
     19 F          61.9441   89.7982   15.1772 F       1  UNL1       -0.1645
     20 C          63.9633   85.5802   14.2516 C.3     1  UNL1        0.0980
     21 C          64.2344   84.5954   15.3501 C.3     1  UNL1        0.0196
     22 C          64.1543   86.0610   15.6596 C.3     1  UNL1        0.0196
     23 N          63.7432   83.7089   11.9171 N.1     1  UNL1       -0.1956
     24 C          63.8532   84.6446   13.0844 C.1     1  UNL1        0.0752
     25 C          61.6471   88.3413   10.5085 C.3     1  UNL1        0.0581
     26 C          60.5401   89.3533   10.4839 C.3     1  UNL1        0.1440
     27 O          60.2451   90.1118    9.2238 O.3     1  UNL1       -0.3816
     28 H          60.8571   89.8299    8.5260 H       1  UNL1        0.2105
     29 C          59.7280   89.6067   11.7193 C.3     1  UNL1        0.1666
     30 O          59.0858   88.4604   12.4429 O.3     1  UNL1       -0.3795
     31 H          58.4038   88.0634   11.8789 H       1  UNL1        0.2105
@<TRIPOS>BOND
     1    23    24    3
     2    24    20    1
     3    20     1    1
     4     1     2   ar
     5     2     3   ar
     6     3    25    1
     7    25    26    1
     8    26    27    1
     9    26    29    1
    10    29    30    1
    11     3     4   ar
    12     4     5   ar
    13     5     7    1
    14     7     8    2
    15     8     9    1
    16     9    10    2
    17    10    11    1
    18    11    12    2
    19    12    13    1
    20    13    14    2
    21    14    16    1
    22    16    17    1
    23    16    18    1
    24    16    19    1
    25    14    15    1
    26     5     6   ar
    27    20    21    1
    28    21    22    1
    29    22    20    1
    30     6     1   ar
    31    15     7    1
    32    15    11    1
    33    27    28    1
    34    30    31    1
