@<TRIPOS>MOLECULE
*****
 35 39 0 0 0
SMALL
GASTEIGER

@<TRIPOS>ATOM
      1 C          64.2674   89.6424   13.8842 C.ar    1  UNL1        0.0991
      2 C          65.4708   90.5210   14.0576 C.ar    1  UNL1        0.0399
      3 C          65.2124   91.8091   13.3337 C.ar    1  UNL1        0.0886
      4 N          63.8493   91.7265   12.7130 N.ar    1  UNL1       -0.2105
      5 S          63.2653   90.3874   13.0532 S.2     1  UNL1        0.0276
      6 N          64.0963   88.2611   14.4437 N.pl3   1  UNL1       -0.2894
      7 H          64.3316   88.0774   15.3819 H       1  UNL1        0.1542
      8 C          61.7932   86.7082   10.0523 C.3     1  UNL1        0.0538
      9 C          62.4152   86.3834   11.3781 C.ar    1  UNL1        0.0784
     10 C          62.5078   84.9573   11.8339 C.ar    1  UNL1        0.0962
     11 N          63.1298   84.6325   13.1596 N.ar    1  UNL1       -0.2856
     12 C          63.3585   83.3308   13.8690 C.ar    1  UNL1        0.0841
     13 C          64.0294   83.6275   15.1774 C.ar    1  UNL1        0.1179
     14 N          64.2153   85.1127   15.2766 N.ar    1  UNL1       -0.2223
     15 C          63.6593   85.7338   14.0295 C.ar    1  UNL1        0.1800
     16 C          63.5668   87.1598   13.5738 C.ar    1  UNL1        0.1670
     17 N          62.9448   87.4847   12.2480 N.ar    1  UNL1       -0.2304
     18 C          62.9824   81.9711   13.3595 C.2     1  UNL1        0.0425
     19 C          63.3306   81.4062   12.0142 C.2     1  UNL1        0.1209
     20 N          62.7554   80.0235   11.9290 N.2     1  UNL1       -0.1510
     21 N          62.0517   79.7338   13.2217 N.2     1  UNL1       -0.1694
     22 C          62.1920   80.9375   14.1057 C.3     1  UNL1        0.1786
     23 C          66.1520   92.9750   13.2459 C.3     1  UNL1        0.1361
     24 C          66.6113   93.4689   11.9061 C.ar    1  UNL1        0.0790
     25 C          67.2105   92.5115   10.9190 C.ar    1  UNL1        0.0165
     26 C          67.6698   93.0054    9.5792 C.ar    1  UNL1        0.0029
     27 C          67.5298   94.4566    9.2265 C.ar    1  UNL1        0.0207
     28 C          66.9306   95.4141   10.2136 C.ar    1  UNL1        0.0985
     29 N          66.4713   94.9201   11.5535 N.ar    1  UNL1       -0.2464
     30 N          66.6323   93.6470   14.4980 N.3     1  UNL1       -0.2913
     31 H          65.8019   93.9544   15.0044 H       1  UNL1        0.1238
     32 C          67.4811   92.8909   15.4767 C.3     1  UNL1        0.0426
     33 C          68.6302   92.9342   14.5135 C.3     1  UNL1        0.0158
     34 C          66.3320   92.8476   16.4398 C.3     1  UNL1        0.0158
     35 C          68.3299   92.1348   16.4553 C.3     1  UNL1        0.0158
@<TRIPOS>BOND
     1     8     9    1
     2     9    10   ar
     3    10    11   ar
     4    11    12   ar
     5    12    18    1
     6    18    19    2
     7    19    20    1
     8    20    21    2
     9    21    22    1
    10    12    13   ar
    11    13    14   ar
    12    14    15   ar
    13    15    16   ar
    14    16     6    1
    15     6     1    1
    16     1     2   ar
    17     2     3   ar
    18     3    23    1
    19    23    30    1
    20    30    32    1
    21    32    33    1
    22    32    34    1
    23    32    35    1
    24    23    24    1
    25    24    25   ar
    26    25    26   ar
    27    26    27   ar
    28    27    28   ar
    29    28    29   ar
    30     3     4   ar
    31     4     5   ar
    32    16    17   ar
    33    17     9   ar
    34    15    11   ar
    35     5     1   ar
    36    22    18    1
    37    29    24   ar
    38     6     7    1
    39    30    31    1
@<TRIPOS>MOLECULE
*****
 35 39 0 0 0
SMALL
GASTEIGER

@<TRIPOS>ATOM
      1 C          63.8999   87.5740   15.3412 C.ar    1  UNL1        0.0991
      2 C          64.0851   86.6249   14.1945 C.ar    1  UNL1        0.0399
      3 C          63.6110   85.2708   14.6322 C.ar    1  UNL1        0.0886
      4 N          63.1328   85.3830   16.0496 N.ar    1  UNL1       -0.2105
      5 S          63.3113   86.8064   16.4877 S.2     1  UNL1        0.0276
      6 N          64.2430   89.0343   15.3414 N.pl3   1  UNL1       -0.2894
      7 H          64.5454   89.4688   16.1715 H       1  UNL1        0.1542
      8 C          61.7943   90.0496   10.8723 C.3     1  UNL1        0.0538
      9 C          62.9009   90.3401   11.8423 C.ar    1  UNL1        0.0784
     10 C          63.8898   91.4289   11.5479 C.ar    1  UNL1        0.0962
     11 N          64.9964   91.7194   12.5179 N.ar    1  UNL1       -0.2856
     12 C          66.1106   92.7235   12.4981 C.ar    1  UNL1        0.0841
     13 C          66.9170   92.5458   13.7504 C.ar    1  UNL1        0.1179
     14 N          66.3011   91.4320   14.5441 N.ar    1  UNL1       -0.2223
     15 C          65.1141   90.9212   13.7824 C.ar    1  UNL1        0.1800
     16 C          64.1253   89.8325   14.0769 C.ar    1  UNL1        0.1670
     17 N          63.0186   89.5419   13.1068 N.ar    1  UNL1       -0.2304
     18 C          66.3725   93.7287   11.4160 C.2     1  UNL1        0.0425
     19 C          66.8725   93.4268   10.0344 C.2     1  UNL1        0.1209
     20 N          66.9894   94.7239    9.2900 N.2     1  UNL1       -0.1510
     21 N          66.5616   95.8273   10.2117 N.2     1  UNL1       -0.1694
     22 C          66.1803   95.2123   11.5256 C.3     1  UNL1        0.1786
     23 C          63.6145   84.0236   13.7990 C.3     1  UNL1        0.1361
     24 C          63.5266   84.1196   12.3047 C.ar    1  UNL1        0.0790
     25 C          64.3886   83.2434   11.4449 C.ar    1  UNL1        0.0165
     26 C          64.3007   83.3394    9.9505 C.ar    1  UNL1        0.0029
     27 C          63.3509   84.3117    9.3160 C.ar    1  UNL1        0.0207
     28 C          62.4889   85.1880   10.1758 C.ar    1  UNL1        0.0985
     29 N          62.5768   85.0919   11.6702 N.ar    1  UNL1       -0.2464
     30 N          63.7059   82.6802   14.4601 N.3     1  UNL1       -0.2913
     31 H          63.6261   82.8403   15.4644 H       1  UNL1        0.1238
     32 C          62.7192   81.6050   14.1133 C.3     1  UNL1        0.0426
     33 C          63.8441   80.7129   13.6790 C.3     1  UNL1        0.0158
     34 C          61.5943   82.4971   14.5476 C.3     1  UNL1        0.0158
     35 C          61.7326   80.5298   13.7665 C.3     1  UNL1        0.0158
@<TRIPOS>BOND
     1     8     9    1
     2     9    10   ar
     3    10    11   ar
     4    11    12   ar
     5    12    18    1
     6    18    19    2
     7    19    20    1
     8    20    21    2
     9    21    22    1
    10    12    13   ar
    11    13    14   ar
    12    14    15   ar
    13    15    16   ar
    14    16     6    1
    15     6     1    1
    16     1     2   ar
    17     2     3   ar
    18     3    23    1
    19    23    30    1
    20    30    32    1
    21    32    33    1
    22    32    34    1
    23    32    35    1
    24    23    24    1
    25    24    25   ar
    26    25    26   ar
    27    26    27   ar
    28    27    28   ar
    29    28    29   ar
    30     3     4   ar
    31     4     5   ar
    32    16    17   ar
    33    17     9   ar
    34    15    11   ar
    35     5     1   ar
    36    22    18    1
    37    29    24   ar
    38     6     7    1
    39    30    31    1
@<TRIPOS>MOLECULE
*****
 35 39 0 0 0
SMALL
GASTEIGER

@<TRIPOS>ATOM
      1 C          63.2386   90.7794   11.8218 C.ar    1  UNL1        0.0991
      2 C          64.3832   91.2981   12.6410 C.ar    1  UNL1        0.0399
      3 C          65.2159   92.1857   11.7643 C.ar    1  UNL1        0.0886
      4 N          64.5860   92.2156   10.4032 N.ar    1  UNL1       -0.2105
      5 S          63.3640   91.3465   10.4388 S.2     1  UNL1        0.0276
      6 N          62.1584   89.8558   12.3015 N.pl3   1  UNL1       -0.2894
      7 H          61.6133   90.1002   13.0841 H       1  UNL1        0.1542
      8 C          59.8569   87.1935    8.4785 C.3     1  UNL1        0.0538
      9 C          60.7578   87.2287    9.6772 C.ar    1  UNL1        0.0784
     10 C          61.4089   85.9678   10.1634 C.ar    1  UNL1        0.0962
     11 N          62.3098   86.0029   11.3622 N.ar    1  UNL1       -0.2856
     12 C          63.0848   84.9294   12.0671 C.ar    1  UNL1        0.0841
     13 C          63.8136   85.5619   13.2155 C.ar    1  UNL1        0.1179
     14 N          63.4890   87.0263   13.2203 N.ar    1  UNL1       -0.2223
     15 C          62.5596   87.2989   12.0749 C.ar    1  UNL1        0.1800
     16 C          61.9085   88.5598   11.5888 C.ar    1  UNL1        0.1670
     17 N          61.0076   88.5247   10.3900 N.ar    1  UNL1       -0.2304
     18 C          63.1241   83.4782   11.6899 C.2     1  UNL1        0.0425
     19 C          63.8187   82.8964   10.4944 C.2     1  UNL1        0.1209
     20 N          63.5995   81.4125   10.5076 N.2     1  UNL1       -0.1510
     21 N          62.7694   81.0773   11.7112 N.2     1  UNL1       -0.1694
     22 C          62.4756   82.3539   12.4419 C.3     1  UNL1        0.1786
     23 C          66.4601   92.9153   12.1762 C.3     1  UNL1        0.1361
     24 C          66.9937   92.7607   13.5696 C.ar    1  UNL1        0.0790
     25 C          66.0821   92.9451   14.7464 C.ar    1  UNL1        0.0165
     26 C          66.6156   92.7905   16.1398 C.ar    1  UNL1        0.0029
     27 C          68.0607   92.4515   16.3562 C.ar    1  UNL1        0.0207
     28 C          68.9723   92.2671   15.1793 C.ar    1  UNL1        0.0985
     29 N          68.4387   92.4217   13.7860 N.ar    1  UNL1       -0.2464
     30 N          67.1707   93.7995   11.1948 N.3     1  UNL1       -0.2913
     31 H          67.9342   94.2477   11.7014 H       1  UNL1        0.1238
     32 C          67.7639   93.2120    9.9487 C.3     1  UNL1        0.0426
     33 C          67.3065   94.4077    9.1671 C.3     1  UNL1        0.0158
     34 C          68.2213   92.0162   10.7303 C.3     1  UNL1        0.0158
     35 C          68.3571   92.6244    8.7026 C.3     1  UNL1        0.0158
@<TRIPOS>BOND
     1     8     9    1
     2     9    10   ar
     3    10    11   ar
     4    11    12   ar
     5    12    18    1
     6    18    19    2
     7    19    20    1
     8    20    21    2
     9    21    22    1
    10    12    13   ar
    11    13    14   ar
    12    14    15   ar
    13    15    16   ar
    14    16     6    1
    15     6     1    1
    16     1     2   ar
    17     2     3   ar
    18     3    23    1
    19    23    30    1
    20    30    32    1
    21    32    33    1
    22    32    34    1
    23    32    35    1
    24    23    24    1
    25    24    25   ar
    26    25    26   ar
    27    26    27   ar
    28    27    28   ar
    29    28    29   ar
    30     3     4   ar
    31     4     5   ar
    32    16    17   ar
    33    17     9   ar
    34    15    11   ar
    35     5     1   ar
    36    22    18    1
    37    29    24   ar
    38     6     7    1
    39    30    31    1
@<TRIPOS>MOLECULE
*****
 35 39 0 0 0
SMALL
GASTEIGER

@<TRIPOS>ATOM
      1 C          63.2244   90.5569   12.0246 C.ar    1  UNL1        0.0991
      2 C          64.1623   91.4181   12.8175 C.ar    1  UNL1        0.0399
      3 C          64.8293   92.3710   11.8705 C.ar    1  UNL1        0.0886
      4 N          64.3036   92.0988   10.4922 N.ar    1  UNL1       -0.2105
      5 S          63.3117   90.9776   10.5875 S.2     1  UNL1        0.0276
      6 N          62.3523   89.4663   12.5727 N.pl3   1  UNL1       -0.2894
      7 H          61.9349   89.5682   13.4585 H       1  UNL1        0.1542
      8 C          60.2759   87.1018    8.4378 C.3     1  UNL1        0.0538
      9 C          61.0780   87.0384    9.7037 C.ar    1  UNL1        0.0784
     10 C          61.6442   85.7292   10.1681 C.ar    1  UNL1        0.0962
     11 N          62.4463   85.6658   11.4340 N.ar    1  UNL1       -0.2856
     12 C          63.1247   84.5272   12.1364 C.ar    1  UNL1        0.0841
     13 C          63.7800   85.0691   13.3720 C.ar    1  UNL1        0.1179
     14 N          63.5066   86.5427   13.4333 N.ar    1  UNL1       -0.2223
     15 C          62.6824   86.9115   12.2355 C.ar    1  UNL1        0.1800
     16 C          62.1163   88.2206   11.7712 C.ar    1  UNL1        0.1670
     17 N          61.3141   88.2841   10.5052 N.ar    1  UNL1       -0.2304
     18 C          63.1443   83.0975   11.6827 C.2     1  UNL1        0.0425
     19 C          63.7400   82.5862   10.4046 C.2     1  UNL1        0.1209
     20 N          63.5355   81.1008   10.3595 N.2     1  UNL1       -0.1510
     21 N          62.8134   80.6943   11.6099 N.2     1  UNL1       -0.1694
     22 C          62.5717   81.9283   12.4277 C.3     1  UNL1        0.1786
     23 C          65.8438   93.4133   12.2372 C.3     1  UNL1        0.1361
     24 C          66.4298   94.2959   11.1753 C.ar    1  UNL1        0.0790
     25 C          66.1125   95.7619   11.1595 C.ar    1  UNL1        0.0165
     26 C          66.6985   96.6446   10.0976 C.ar    1  UNL1        0.0029
     27 C          67.6017   96.0612    9.0517 C.ar    1  UNL1        0.0207
     28 C          67.9191   94.5953    9.0676 C.ar    1  UNL1        0.0985
     29 N          67.3331   93.7126   10.1295 N.ar    1  UNL1       -0.2464
     30 N          66.2723   93.5728   13.6658 N.3     1  UNL1       -0.2913
     31 H          65.4370   93.8158   14.1984 H       1  UNL1        0.1238
     32 C          66.9270   92.4305   14.3844 C.3     1  UNL1        0.0426
     33 C          67.7918   92.1724   13.1863 C.3     1  UNL1        0.0158
     34 C          66.0622   92.6886   15.5825 C.3     1  UNL1        0.0158
     35 C          67.5817   91.2882   15.1031 C.3     1  UNL1        0.0158
@<TRIPOS>BOND
     1     8     9    1
     2     9    10   ar
     3    10    11   ar
     4    11    12   ar
     5    12    18    1
     6    18    19    2
     7    19    20    1
     8    20    21    2
     9    21    22    1
    10    12    13   ar
    11    13    14   ar
    12    14    15   ar
    13    15    16   ar
    14    16     6    1
    15     6     1    1
    16     1     2   ar
    17     2     3   ar
    18     3    23    1
    19    23    30    1
    20    30    32    1
    21    32    33    1
    22    32    34    1
    23    32    35    1
    24    23    24    1
    25    24    25   ar
    26    25    26   ar
    27    26    27   ar
    28    27    28   ar
    29    28    29   ar
    30     3     4   ar
    31     4     5   ar
    32    16    17   ar
    33    17     9   ar
    34    15    11   ar
    35     5     1   ar
    36    22    18    1
    37    29    24   ar
    38     6     7    1
    39    30    31    1
@<TRIPOS>MOLECULE
*****
 35 39 0 0 0
SMALL
GASTEIGER

@<TRIPOS>ATOM
      1 C          63.5388   88.3388   14.1093 C.ar    1  UNL1        0.0991
      2 C          63.0967   87.6156   12.8717 C.ar    1  UNL1        0.0399
      3 C          63.5839   86.1999   12.9631 C.ar    1  UNL1        0.0886
      4 N          64.3271   86.0482   14.2573 N.ar    1  UNL1       -0.2105
      5 S          64.2992   87.3701   14.9656 S.2     1  UNL1        0.0276
      6 N          63.2679   89.7781   14.4336 N.pl3   1  UNL1       -0.2894
      7 H          62.4036   90.0403   14.8253 H       1  UNL1        0.1542
      8 C          67.1592   92.7916   16.1002 C.3     1  UNL1        0.0538
      9 C          66.2597   92.3247   14.9943 C.ar    1  UNL1        0.0784
     10 C          66.4062   92.8978   13.6158 C.ar    1  UNL1        0.0962
     11 N          65.5067   92.4310   12.5100 N.ar    1  UNL1       -0.2856
     12 C          65.4165   92.8107   11.0617 C.ar    1  UNL1        0.0841
     13 C          64.3147   92.0054   10.4391 C.ar    1  UNL1        0.1179
     14 N          63.7239   91.1281   11.5027 N.ar    1  UNL1       -0.2223
     15 C          64.4606   91.3911   12.7826 C.ar    1  UNL1        0.1800
     16 C          64.3140   90.8180   14.1610 C.ar    1  UNL1        0.1670
     17 N          65.2136   91.2849   15.2669 N.ar    1  UNL1       -0.2304
     18 C          66.2771   93.8186   10.3592 C.2     1  UNL1        0.0425
     19 C          67.4281   93.5125    9.4474 C.2     1  UNL1        0.1209
     20 N          68.0002   94.8144    8.9699 N.2     1  UNL1       -0.1510
     21 N          67.2026   95.9251    9.5867 N.2     1  UNL1       -0.1694
     22 C          66.1377   95.3096   10.4453 C.3     1  UNL1        0.1786
     23 C          63.3662   85.1247   11.9401 C.3     1  UNL1        0.1361
     24 C          62.5995   85.4263   10.6866 C.ar    1  UNL1        0.0790
     25 C          63.1700   85.0532    9.3505 C.ar    1  UNL1        0.0165
     26 C          62.4033   85.3548    8.0970 C.ar    1  UNL1        0.0029
     27 C          61.0662   86.0294    8.1797 C.ar    1  UNL1        0.0207
     28 C          60.4956   86.4025    9.5158 C.ar    1  UNL1        0.0985
     29 N          61.2623   86.1010   10.7693 N.ar    1  UNL1       -0.2464
     30 N          63.9152   83.7480   12.1706 N.3     1  UNL1       -0.2913
     31 H          64.5520   83.8140   12.9646 H       1  UNL1        0.1238
     32 C          62.9839   82.6073   12.4562 C.3     1  UNL1        0.0426
     33 C          62.5940   83.2506   13.7539 C.3     1  UNL1        0.0158
     34 C          63.3738   81.9640   11.1585 C.3     1  UNL1        0.0158
     35 C          62.0526   81.4667   12.7418 C.3     1  UNL1        0.0158
@<TRIPOS>BOND
     1     8     9    1
     2     9    10   ar
     3    10    11   ar
     4    11    12   ar
     5    12    18    1
     6    18    19    2
     7    19    20    1
     8    20    21    2
     9    21    22    1
    10    12    13   ar
    11    13    14   ar
    12    14    15   ar
    13    15    16   ar
    14    16     6    1
    15     6     1    1
    16     1     2   ar
    17     2     3   ar
    18     3    23    1
    19    23    30    1
    20    30    32    1
    21    32    33    1
    22    32    34    1
    23    32    35    1
    24    23    24    1
    25    24    25   ar
    26    25    26   ar
    27    26    27   ar
    28    27    28   ar
    29    28    29   ar
    30     3     4   ar
    31     4     5   ar
    32    16    17   ar
    33    17     9   ar
    34    15    11   ar
    35     5     1   ar
    36    22    18    1
    37    29    24   ar
    38     6     7    1
    39    30    31    1
@<TRIPOS>MOLECULE
*****
 35 39 0 0 0
SMALL
GASTEIGER

@<TRIPOS>ATOM
      1 C          61.2847   89.1059   11.1673 C.ar    1  UNL1        0.0991
      2 C          62.3559   88.1888   10.6560 C.ar    1  UNL1        0.0399
      3 C          61.6883   87.0165   10.0001 C.ar    1  UNL1        0.0886
      4 N          60.2045   87.2092   10.1061 N.ar    1  UNL1       -0.2105
      5 S          59.9550   88.5005   10.8274 S.2     1  UNL1        0.0276
      6 N          61.5045   90.4011   11.8913 N.pl3   1  UNL1       -0.2894
      7 H          60.9471   91.1844   11.6793 H       1  UNL1        0.1542
      8 C          63.2487   89.3095   16.6627 C.3     1  UNL1        0.0538
      9 C          63.4458   89.9571   15.3242 C.ar    1  UNL1        0.0784
     10 C          64.7122   90.7064   15.0326 C.ar    1  UNL1        0.0962
     11 N          64.9093   91.3539   13.6941 N.ar    1  UNL1       -0.2856
     12 C          66.0432   92.1523   13.1225 C.ar    1  UNL1        0.0841
     13 C          65.6749   92.5440   11.7222 C.ar    1  UNL1        0.1179
     14 N          64.3133   91.9877   11.4283 N.ar    1  UNL1       -0.2223
     15 C          63.8401   91.2521   12.6469 C.ar    1  UNL1        0.1800
     16 C          62.5737   90.5029   12.9384 C.ar    1  UNL1        0.1670
     17 N          62.3766   89.8553   14.2770 N.ar    1  UNL1       -0.2304
     18 C          67.3212   92.4983   13.8276 C.2     1  UNL1        0.0425
     19 C          68.6816   91.9557   13.5037 C.2     1  UNL1        0.1209
     20 N          69.6644   92.5697   14.4563 N.2     1  UNL1       -0.1510
     21 N          68.9112   93.4917   15.3689 N.2     1  UNL1       -0.1694
     22 C          67.4631   93.4476   14.9803 C.3     1  UNL1        0.1786
     23 C          62.3827   85.8555    9.3521 C.3     1  UNL1        0.1361
     24 C          62.8304   84.6901   10.1837 C.ar    1  UNL1        0.0790
     25 C          63.8173   83.7070    9.6273 C.ar    1  UNL1        0.0165
     26 C          64.2650   82.5417   10.4589 C.ar    1  UNL1        0.0029
     27 C          63.7258   82.3594   11.8467 C.ar    1  UNL1        0.0207
     28 C          62.7389   83.3426   12.4031 C.ar    1  UNL1        0.0985
     29 N          62.2912   84.5079   11.5715 N.ar    1  UNL1       -0.2464
     30 N          62.6293   85.8599    7.8725 N.3     1  UNL1       -0.2913
     31 H          63.5941   85.5593    7.7339 H       1  UNL1        0.1238
     32 C          61.7792   85.0177    6.9681 C.3     1  UNL1        0.0426
     33 C          60.5445   85.6438    7.5455 C.3     1  UNL1        0.0158
     34 C          63.0139   84.3916    6.3906 C.3     1  UNL1        0.0158
     35 C          60.9291   84.1756    6.0636 C.3     1  UNL1        0.0158
@<TRIPOS>BOND
     1     8     9    1
     2     9    10   ar
     3    10    11   ar
     4    11    12   ar
     5    12    18    1
     6    18    19    2
     7    19    20    1
     8    20    21    2
     9    21    22    1
    10    12    13   ar
    11    13    14   ar
    12    14    15   ar
    13    15    16   ar
    14    16     6    1
    15     6     1    1
    16     1     2   ar
    17     2     3   ar
    18     3    23    1
    19    23    30    1
    20    30    32    1
    21    32    33    1
    22    32    34    1
    23    32    35    1
    24    23    24    1
    25    24    25   ar
    26    25    26   ar
    27    26    27   ar
    28    27    28   ar
    29    28    29   ar
    30     3     4   ar
    31     4     5   ar
    32    16    17   ar
    33    17     9   ar
    34    15    11   ar
    35     5     1   ar
    36    22    18    1
    37    29    24   ar
    38     6     7    1
    39    30    31    1
@<TRIPOS>MOLECULE
*****
 35 39 0 0 0
SMALL
GASTEIGER

@<TRIPOS>ATOM
      1 C          63.9249   89.4746   13.4573 C.ar    1  UNL1        0.0991
      2 C          65.1099   90.3768   13.6356 C.ar    1  UNL1        0.0399
      3 C          64.8613   91.6295   12.8489 C.ar    1  UNL1        0.0886
      4 N          63.5226   91.5015   12.1844 N.ar    1  UNL1       -0.2105
      5 S          62.9439   90.1697   12.5603 S.2     1  UNL1        0.0276
      6 N          63.7514   88.1158   14.0686 N.pl3   1  UNL1       -0.2894
      7 H          63.9378   87.9790   15.0255 H       1  UNL1        0.1542
      8 C          61.6193   86.3261    9.6809 C.3     1  UNL1        0.0538
      9 C          62.2277   86.0705   11.0279 C.ar    1  UNL1        0.0784
     10 C          62.3786   84.6644   11.5282 C.ar    1  UNL1        0.0962
     11 N          62.9870   84.4088   12.8752 N.ar    1  UNL1       -0.2856
     12 C          63.2625   83.1409   13.6278 C.ar    1  UNL1        0.0841
     13 C          63.8904   83.5077   14.9398 C.ar    1  UNL1        0.1179
     14 N          64.0029   85.0023   14.9979 N.ar    1  UNL1       -0.2223
     15 C          63.4446   85.5593   13.7220 C.ar    1  UNL1        0.1800
     16 C          63.2938   86.9653   13.2218 C.ar    1  UNL1        0.1670
     17 N          62.6853   87.2210   11.8747 N.ar    1  UNL1       -0.2304
     18 C          62.9628   81.7503   13.1520 C.2     1  UNL1        0.0425
     19 C          63.1820   81.2271   11.7634 C.2     1  UNL1        0.1209
     20 N          62.7459   79.7921   11.7345 N.2     1  UNL1       -0.1510
     21 N          62.2571   79.4286   13.1052 N.2     1  UNL1       -0.1694
     22 C          62.3912   80.6388   13.9813 C.3     1  UNL1        0.1786
     23 C          65.7885   92.8040   12.7450 C.3     1  UNL1        0.1361
     24 C          66.9735   92.9072   13.6588 C.ar    1  UNL1        0.0790
     25 C          66.8918   93.7434   14.9014 C.ar    1  UNL1        0.0165
     26 C          68.0769   93.8465   15.8152 C.ar    1  UNL1        0.0029
     27 C          69.3436   93.1135   15.4864 C.ar    1  UNL1        0.0207
     28 C          69.4253   92.2773   14.2438 C.ar    1  UNL1        0.0985
     29 N          68.2402   92.1741   13.3300 N.ar    1  UNL1       -0.2464
     30 N          65.5306   93.8754   11.7274 N.3     1  UNL1       -0.2913
     31 H          65.3591   94.7377   12.2446 H       1  UNL1        0.1238
     32 C          66.5683   94.1910   10.6913 C.3     1  UNL1        0.0426
     33 C          66.5653   95.6267   11.1256 C.3     1  UNL1        0.0158
     34 C          66.5713   92.7553   10.2569 C.3     1  UNL1        0.0158
     35 C          67.6060   94.5066    9.6552 C.3     1  UNL1        0.0158
@<TRIPOS>BOND
     1     8     9    1
     2     9    10   ar
     3    10    11   ar
     4    11    12   ar
     5    12    18    1
     6    18    19    2
     7    19    20    1
     8    20    21    2
     9    21    22    1
    10    12    13   ar
    11    13    14   ar
    12    14    15   ar
    13    15    16   ar
    14    16     6    1
    15     6     1    1
    16     1     2   ar
    17     2     3   ar
    18     3    23    1
    19    23    30    1
    20    30    32    1
    21    32    33    1
    22    32    34    1
    23    32    35    1
    24    23    24    1
    25    24    25   ar
    26    25    26   ar
    27    26    27   ar
    28    27    28   ar
    29    28    29   ar
    30     3     4   ar
    31     4     5   ar
    32    16    17   ar
    33    17     9   ar
    34    15    11   ar
    35     5     1   ar
    36    22    18    1
    37    29    24   ar
    38     6     7    1
    39    30    31    1
@<TRIPOS>MOLECULE
*****
 35 39 0 0 0
SMALL
GASTEIGER

@<TRIPOS>ATOM
      1 C          61.9549   89.1827   12.7611 C.ar    1  UNL1        0.0991
      2 C          62.7661   88.0641   12.1775 C.ar    1  UNL1        0.0399
      3 C          61.9769   87.4549   11.0567 C.ar    1  UNL1        0.0886
      4 N          60.6779   88.1971   10.9478 N.ar    1  UNL1       -0.2105
      5 S          60.6644   89.2649   12.0011 S.2     1  UNL1        0.0276
      6 N          62.3628   90.0644   13.9041 N.pl3   1  UNL1       -0.2894
      7 H          61.8190   90.0900   14.7244 H       1  UNL1        0.1542
      8 C          66.4097   92.4225   16.1539 C.3     1  UNL1        0.0538
      9 C          65.6226   92.0860   14.9222 C.ar    1  UNL1        0.0784
     10 C          66.0719   92.5922   13.5835 C.ar    1  UNL1        0.0962
     11 N          65.2848   92.2557   12.3518 N.ar    1  UNL1       -0.2856
     12 C          65.4813   92.6093   10.9073 C.ar    1  UNL1        0.0841
     13 C          64.3664   91.9852   10.1215 C.ar    1  UNL1        0.1179
     14 N          63.4809   91.2460   11.0802 N.ar    1  UNL1       -0.2223
     15 C          64.0484   91.4131   12.4586 C.ar    1  UNL1        0.1800
     16 C          63.5992   90.9070   13.7972 C.ar    1  UNL1        0.1670
     17 N          64.3863   91.2434   15.0291 N.ar    1  UNL1       -0.2304
     18 C          66.5969   93.4409   10.3471 C.2     1  UNL1        0.0425
     19 C          66.6333   94.9391   10.2829 C.2     1  UNL1        0.1209
     20 N          67.9309   95.3445    9.6489 N.2     1  UNL1       -0.1510
     21 N          68.6964   94.0968    9.3212 N.2     1  UNL1       -0.1694
     22 C          67.8719   92.9204    9.7527 C.3     1  UNL1        0.1786
     23 C          62.4105   86.3054   10.1961 C.3     1  UNL1        0.1361
     24 C          62.7801   84.9949   10.8255 C.ar    1  UNL1        0.0790
     25 C          63.6082   84.0038   10.0627 C.ar    1  UNL1        0.0165
     26 C          63.9779   82.6933   10.6920 C.ar    1  UNL1        0.0029
     27 C          63.5194   82.3741   12.0841 C.ar    1  UNL1        0.0207
     28 C          62.6913   83.3652   12.8469 C.ar    1  UNL1        0.0985
     29 N          62.3217   84.6757   12.2176 N.ar    1  UNL1       -0.2464
     30 N          62.4744   86.4664    8.7062 N.3     1  UNL1       -0.2913
     31 H          63.4249   86.2263    8.4246 H       1  UNL1        0.1238
     32 C          61.5500   85.6781    7.8263 C.3     1  UNL1        0.0426
     33 C          60.3709   86.3618    8.4527 C.3     1  UNL1        0.0158
     34 C          62.7291   84.9945    7.2000 C.3     1  UNL1        0.0158
     35 C          60.6256   84.8899    6.9465 C.3     1  UNL1        0.0158
@<TRIPOS>BOND
     1     8     9    1
     2     9    10   ar
     3    10    11   ar
     4    11    12   ar
     5    12    18    1
     6    18    19    2
     7    19    20    1
     8    20    21    2
     9    21    22    1
    10    12    13   ar
    11    13    14   ar
    12    14    15   ar
    13    15    16   ar
    14    16     6    1
    15     6     1    1
    16     1     2   ar
    17     2     3   ar
    18     3    23    1
    19    23    30    1
    20    30    32    1
    21    32    33    1
    22    32    34    1
    23    32    35    1
    24    23    24    1
    25    24    25   ar
    26    25    26   ar
    27    26    27   ar
    28    27    28   ar
    29    28    29   ar
    30     3     4   ar
    31     4     5   ar
    32    16    17   ar
    33    17     9   ar
    34    15    11   ar
    35     5     1   ar
    36    22    18    1
    37    29    24   ar
    38     6     7    1
    39    30    31    1
@<TRIPOS>MOLECULE
*****
 35 39 0 0 0
SMALL
GASTEIGER

@<TRIPOS>ATOM
      1 C          63.7645   87.3316   15.4004 C.ar    1  UNL1        0.0991
      2 C          64.3421   88.3138   14.4248 C.ar    1  UNL1        0.0399
      3 C          64.0729   89.6952   14.9435 C.ar    1  UNL1        0.0886
      4 N          63.3289   89.5669   16.2397 N.ar    1  UNL1       -0.2105
      5 S          63.1383   88.1061   16.5220 S.2     1  UNL1        0.0276
      6 N          63.8058   85.8373   15.2761 N.pl3   1  UNL1       -0.2894
      7 H          64.0796   85.2868   16.0450 H       1  UNL1        0.1542
      8 C          62.1367   86.1981   10.3686 C.3     1  UNL1        0.0538
      9 C          62.5954   85.3623   11.5265 C.ar    1  UNL1        0.0784
     10 C          62.6783   83.8709   11.3887 C.ar    1  UNL1        0.0962
     11 N          63.1370   83.0350   12.5467 N.ar    1  UNL1       -0.2856
     12 C          63.3183   81.5546   12.7064 C.ar    1  UNL1        0.0841
     13 C          63.8062   81.2951   14.1009 C.ar    1  UNL1        0.1179
     14 N          63.9264   82.6152   14.8030 N.ar    1  UNL1       -0.2223
     15 C          63.5129   83.6905   13.8425 C.ar    1  UNL1        0.1800
     16 C          63.4300   85.1818   13.9803 C.ar    1  UNL1        0.1670
     17 N          62.9712   86.0177   12.8223 N.ar    1  UNL1       -0.2304
     18 C          63.0575   80.5160   11.6560 C.2     1  UNL1        0.0425
     19 C          63.1732   80.7129   10.1735 C.2     1  UNL1        0.1209
     20 N          62.8224   79.4167    9.5049 N.2     1  UNL1       -0.1510
     21 N          62.4899   78.4188   10.5744 N.2     1  UNL1       -0.1694
     22 C          62.6352   79.0982   11.9038 C.3     1  UNL1        0.1786
     23 C          64.4768   90.9796   14.2822 C.3     1  UNL1        0.1361
     24 C          65.7977   91.6096   14.6113 C.ar    1  UNL1        0.0790
     25 C          65.9583   92.3962   15.8784 C.ar    1  UNL1        0.0165
     26 C          67.2792   93.0263   16.2076 C.ar    1  UNL1        0.0029
     27 C          68.4393   92.8697   15.2697 C.ar    1  UNL1        0.0207
     28 C          68.2787   92.0831   14.0026 C.ar    1  UNL1        0.0985
     29 N          66.9578   91.4531   13.6735 N.ar    1  UNL1       -0.2464
     30 N          63.5598   91.6338   13.2917 N.3     1  UNL1       -0.2913
     31 H          63.9224   92.5735   13.1308 H       1  UNL1        0.1238
     32 C          63.3487   91.0141   11.9421 C.3     1  UNL1        0.0426
     33 C          64.4867   91.8224   11.3930 C.3     1  UNL1        0.0158
     34 C          62.2106   90.2059   12.4913 C.3     1  UNL1        0.0158
     35 C          63.1375   90.3945   10.5925 C.3     1  UNL1        0.0158
@<TRIPOS>BOND
     1     8     9    1
     2     9    10   ar
     3    10    11   ar
     4    11    12   ar
     5    12    18    1
     6    18    19    2
     7    19    20    1
     8    20    21    2
     9    21    22    1
    10    12    13   ar
    11    13    14   ar
    12    14    15   ar
    13    15    16   ar
    14    16     6    1
    15     6     1    1
    16     1     2   ar
    17     2     3   ar
    18     3    23    1
    19    23    30    1
    20    30    32    1
    21    32    33    1
    22    32    34    1
    23    32    35    1
    24    23    24    1
    25    24    25   ar
    26    25    26   ar
    27    26    27   ar
    28    27    28   ar
    29    28    29   ar
    30     3     4   ar
    31     4     5   ar
    32    16    17   ar
    33    17     9   ar
    34    15    11   ar
    35     5     1   ar
    36    22    18    1
    37    29    24   ar
    38     6     7    1
    39    30    31    1
