@<TRIPOS>MOLECULE
*****
 51 57 0 0 0
SMALL
GASTEIGER

@<TRIPOS>ATOM
      1 C          60.8503   88.8298    9.5835 C.2     1  UNL1        0.2201
      2 N          60.1260   89.7927    8.6901 N.2     1  UNL1       -0.0470
      3 C          59.6003   89.3339    7.3624 C.cat   1  UNL1        0.4657
      4 N          59.7990   87.9119    6.9278 N.2     1  UNL1        0.0297
      5 C          60.5233   86.9490    7.8212 C.2     1  UNL1        0.3701
      6 N          60.8677   85.4977    7.6628 N.2     1  UNL1       -0.0340
      7 C          61.6062   85.0596    8.8927 C.2     1  UNL1        0.2322
      8 C          61.7182   86.2402    9.8112 C.2     1  UNL1        0.0456
      9 C          61.0490   87.4079    9.1490 C.3     1  UNL1        0.2120
     10 C          62.8852   89.9647   12.6877 C.ar    1  UNL1        0.0727
     11 C          61.4846   90.0251   13.2213 C.ar    1  UNL1        0.0251
     12 C          60.5519   89.6074   12.1234 C.ar    1  UNL1        0.0827
     13 N          61.3759   89.2887   10.9113 N.ar    1  UNL1       -0.2780
     14 C          62.8180   89.5096   11.2600 C.ar    1  UNL1        0.0870
     15 N          64.6674   91.7022   13.4326 N.am    1  UNL1       -0.2809
     16 C          64.1336   90.3005   13.4483 C.2     1  UNL1        0.2510
     17 O          64.8485   89.2344   14.2247 O.2     1  UNL1       -0.2698
     18 H          64.1983   92.4019   12.9230 H       1  UNL1        0.1552
     19 C          65.8428   92.3326   15.6622 C.ar    1  UNL1       -0.0090
     20 C          67.0913   92.6683   16.4228 C.ar    1  UNL1       -0.0031
     21 C          68.4129   92.7094   15.7144 C.ar    1  UNL1       -0.0006
     22 C          68.4860   92.4147   14.2455 C.ar    1  UNL1       -0.0031
     23 C          67.2374   92.0790   13.4849 C.ar    1  UNL1       -0.0090
     24 C          65.9160   92.0380   14.1932 C.ar    1  UNL1        0.0425
     25 C          63.9359   90.9759   16.7903 C.3     1  UNL1        0.0051
     26 C          64.5213   92.2916   16.3705 C.3     1  UNL1        0.0276
     27 C          67.3105   91.7844   12.0160 C.3     1  UNL1        0.0276
     28 C          66.8016   92.7875   11.0236 C.3     1  UNL1        0.0051
     29 N          58.8760   90.2969    6.4690 N.pl3   1  UNL1       -0.1895
     30 H          57.9259   90.4985    6.6301 H       1  UNL1        0.2524
     31 C          59.5992   90.9527    5.3302 C.ar    1  UNL1        0.1435
     32 C          61.0074   90.5509    5.0053 C.ar    1  UNL1        0.0356
     33 C          61.7306   91.2067    3.8664 C.ar    1  UNL1        0.0174
     34 C          61.0457   92.2642    3.0525 C.ar    1  UNL1        0.0511
     35 C          59.6375   92.6659    3.3774 C.ar    1  UNL1        0.0541
     36 C          58.9142   92.0102    4.5162 C.ar    1  UNL1        0.1684
     37 N          61.7688   92.9201    1.9137 N.pl3   1  UNL1       -0.3073
     38 C          61.1575   92.9308    0.5439 C.3     1  UNL1        0.0922
     39 C          61.8806   93.5866   -0.5950 C.3     1  UNL1        0.0374
     40 C          63.2150   94.2316   -0.3640 C.3     1  UNL1        0.0610
     41 C          63.8263   94.2209    1.0057 C.3     1  UNL1        0.0374
     42 C          63.1032   93.5651    2.1446 C.3     1  UNL1        0.0922
     43 N          63.9381   94.8874   -1.5029 N.3     1  UNL1       -0.2715
     44 C          64.9233   95.9857   -1.2328 C.3     1  UNL1        0.0896
     45 C          65.6464   96.6415   -2.3718 C.3     1  UNL1        0.0897
     46 N          65.3842   96.1990   -3.7808 N.3     1  UNL1       -0.2691
     47 C          66.1073   96.8548   -4.9197 C.3     1  UNL1        0.0897
     48 C          64.3989   95.1007   -4.0510 C.3     1  UNL1        0.0897
     49 C          63.6758   94.4449   -2.9121 C.3     1  UNL1        0.0896
     50 O          57.5060   92.4119    4.8411 O.3     1  UNL1       -0.4687
     51 C          56.4021   91.3988    4.7715 C.3     1  UNL1        0.2526
@<TRIPOS>BOND
     1    25    26    1
     2    26    19    1
     3    19    20   ar
     4    20    21   ar
     5    21    22   ar
     6    22    23   ar
     7    23    27    1
     8    27    28    1
     9    23    24   ar
    10    24    15    1
    11    15    16   am
    12    16    17    2
    13    16    10    1
    14    10    11   ar
    15    11    12   ar
    16    12    13   ar
    17    13     1    1
    18     1     2    2
    19     2     3    1
    20     3    29    1
    21    29    31    1
    22    31    32   ar
    23    32    33   ar
    24    33    34   ar
    25    34    37    1
    26    37    38    1
    27    38    39    1
    28    39    40    1
    29    40    43    1
    30    43    44    1
    31    44    45    1
    32    45    46    1
    33    46    47    1
    34    46    48    1
    35    48    49    1
    36    40    41    1
    37    41    42    1
    38    34    35   ar
    39    35    36   ar
    40    36    50    1
    41    50    51    1
    42     3     4    2
    43     4     5    1
    44     5     6    2
    45     6     7    1
    46     7     8    2
    47     8     9    1
    48    13    14   ar
    49    24    19   ar
    50    14    10   ar
    51     9     1    1
    52    36    31   ar
    53     9     5    1
    54    42    37    1
    55    49    43    1
    56    15    18    1
    57    29    30    1
@<TRIPOS>MOLECULE
*****
 51 57 0 0 0
SMALL
GASTEIGER

@<TRIPOS>ATOM
      1 C          60.8695   88.8551    9.6450 C.2     1  UNL1        0.2201
      2 N          60.1069   89.8108    8.7761 N.2     1  UNL1       -0.0470
      3 C          59.5676   89.3547    7.4530 C.cat   1  UNL1        0.4657
      4 N          59.7908   87.9426    6.9985 N.2     1  UNL1        0.0297
      5 C          60.5535   86.9869    7.8674 C.2     1  UNL1        0.3701
      6 N          60.9281   85.5458    7.6861 N.2     1  UNL1       -0.0340
      7 C          61.6990   85.1114    8.8973 C.2     1  UNL1        0.2322
      8 C          61.8008   86.2840    9.8272 C.2     1  UNL1        0.0456
      9 C          61.0928   87.4431    9.1907 C.3     1  UNL1        0.2120
     10 C          62.9365   89.9814   12.7312 C.ar    1  UNL1        0.0727
     11 C          61.5411   90.0454   13.2778 C.ar    1  UNL1        0.0251
     12 C          60.5970   89.6313   12.1883 C.ar    1  UNL1        0.0827
     13 N          61.4088   89.3113   10.9683 N.ar    1  UNL1       -0.2780
     14 C          62.8547   89.5277   11.3038 C.ar    1  UNL1        0.0870
     15 N          64.7208   91.7170   13.4756 N.am    1  UNL1       -0.2809
     16 C          64.1930   90.3129   13.4804 C.2     1  UNL1        0.2510
     17 O          64.9217   89.2403   14.2344 O.2     1  UNL1       -0.2698
     18 H          64.2426   92.4210   12.9807 H       1  UNL1        0.1552
     19 C          67.2947   92.0693   13.5077 C.ar    1  UNL1       -0.0090
     20 C          68.5512   92.4007   14.2570 C.ar    1  UNL1       -0.0031
     21 C          68.4903   92.7113   15.7233 C.ar    1  UNL1       -0.0006
     22 C          67.1729   92.6904   16.4403 C.ar    1  UNL1       -0.0031
     23 C          65.9165   92.3590   15.6910 C.ar    1  UNL1       -0.0090
     24 C          65.9774   92.0484   14.2248 C.ar    1  UNL1        0.0425
     25 C          66.7274   92.6930   11.0504 C.3     1  UNL1        0.0051
     26 C          67.3556   91.7588   12.0416 C.3     1  UNL1        0.0276
     27 C          64.5991   92.3381   16.4080 C.3     1  UNL1        0.0276
     28 C          63.8965   91.0347   16.6482 C.3     1  UNL1        0.0051
     29 N          58.8049   90.3105    6.5840 N.pl3   1  UNL1       -0.1895
     30 H          57.8608   90.5084    6.7806 H       1  UNL1        0.2524
     31 C          59.4808   90.9646    5.4156 C.ar    1  UNL1        0.1435
     32 C          60.9059   90.6291    5.0893 C.ar    1  UNL1        0.0356
     33 C          61.5819   91.2832    3.9208 C.ar    1  UNL1        0.0174
     34 C          60.8327   92.2729    3.0787 C.ar    1  UNL1        0.0511
     35 C          59.4076   92.6085    3.4050 C.ar    1  UNL1        0.0541
     36 C          58.7317   91.9543    4.5735 C.ar    1  UNL1        0.1684
     37 N          61.5085   92.9271    1.9102 N.pl3   1  UNL1       -0.3073
     38 C          62.9223   93.4121    2.0368 C.3     1  UNL1        0.0922
     39 C          63.5982   94.0663    0.8684 C.3     1  UNL1        0.0374
     40 C          62.8603   94.2355   -0.4265 C.3     1  UNL1        0.0610
     41 C          61.4465   93.7505   -0.5530 C.3     1  UNL1        0.0374
     42 C          60.7706   93.0963    0.6154 C.3     1  UNL1        0.0922
     43 N          63.5362   94.8897   -1.5949 N.3     1  UNL1       -0.2715
     44 C          62.9522   94.7566   -2.9701 C.3     1  UNL1        0.0896
     45 C          63.6282   95.4109   -4.1385 C.3     1  UNL1        0.0897
     46 N          64.8881   96.1982   -3.9317 N.3     1  UNL1       -0.2691
     47 C          65.5640   96.8524   -5.1001 C.3     1  UNL1        0.0897
     48 C          65.4721   96.3313   -2.5565 C.3     1  UNL1        0.0897
     49 C          64.7961   95.6771   -1.3881 C.3     1  UNL1        0.0896
     50 O          57.3066   92.2899    4.8998 O.3     1  UNL1       -0.4687
     51 C          56.2464   91.2331    4.8043 C.3     1  UNL1        0.2526
@<TRIPOS>BOND
     1    25    26    1
     2    26    19    1
     3    19    20   ar
     4    20    21   ar
     5    21    22   ar
     6    22    23   ar
     7    23    27    1
     8    27    28    1
     9    23    24   ar
    10    24    15    1
    11    15    16   am
    12    16    17    2
    13    16    10    1
    14    10    11   ar
    15    11    12   ar
    16    12    13   ar
    17    13     1    1
    18     1     2    2
    19     2     3    1
    20     3    29    1
    21    29    31    1
    22    31    32   ar
    23    32    33   ar
    24    33    34   ar
    25    34    37    1
    26    37    38    1
    27    38    39    1
    28    39    40    1
    29    40    43    1
    30    43    44    1
    31    44    45    1
    32    45    46    1
    33    46    47    1
    34    46    48    1
    35    48    49    1
    36    40    41    1
    37    41    42    1
    38    34    35   ar
    39    35    36   ar
    40    36    50    1
    41    50    51    1
    42     3     4    2
    43     4     5    1
    44     5     6    2
    45     6     7    1
    46     7     8    2
    47     8     9    1
    48    13    14   ar
    49    24    19   ar
    50    14    10   ar
    51     9     1    1
    52    36    31   ar
    53     9     5    1
    54    42    37    1
    55    49    43    1
    56    15    18    1
    57    29    30    1
