@<TRIPOS>MOLECULE
*****
 32 35 0 0 0
SMALL
GASTEIGER

@<TRIPOS>ATOM
      1 C          63.5390   88.5788   13.1806 C.ar    1  UNL1        0.3283
      2 N          63.7995   87.2332   13.7902 N.ar    1  UNL1       -0.1741
      3 C          63.2311   85.9992   13.1547 C.ar    1  UNL1        0.1773
      4 N          62.4022   86.1107   11.9095 N.ar    1  UNL1       -0.1937
      5 C          62.1417   87.4562   11.2999 C.ar    1  UNL1        0.2255
      6 N          62.7101   88.6903   11.9354 N.ar    1  UNL1       -0.1607
      7 C          63.4916   84.6536   13.7643 C.ar    1  UNL1        0.0871
      8 C          64.1407   84.3979   15.0922 C.ar    1  UNL1        0.1104
      9 N          64.1990   82.9138   15.3016 N.ar    1  UNL1       -0.2228
     10 C          63.5860   82.2521   14.1030 C.ar    1  UNL1        0.1568
     11 N          63.4364   80.7746   13.8916 N.pl3   1  UNL1       -0.3375
     12 S          63.1488   83.3274   13.1528 S.2     1  UNL1       -0.0488
     13 H          63.7562   80.1445   14.5771 H       1  UNL1        0.1442
     14 H          63.0184   80.4351   13.0675 H       1  UNL1        0.1442
     15 N          61.3128   87.5676   10.0547 N.pl3   1  UNL1       -0.2729
     16 C          60.9356   86.3325    9.2917 C.3     1  UNL1        0.1257
     17 C          60.1067   86.4440    8.0465 C.3     1  UNL1        0.1637
     18 O          59.6550   87.7906    7.5643 O.3     1  UNL1       -0.3501
     19 C          60.0322   89.0258    8.3273 C.3     1  UNL1        0.1637
     20 C          60.8611   88.9143    9.5724 C.3     1  UNL1        0.1257
     21 O          64.1074   89.8129   13.8162 O.3     1  UNL1       -0.4222
     22 C          65.5461   93.2114   11.2412 C.ar    1  UNL1        0.0538
     23 C          66.1436   92.9948   12.5999 C.ar    1  UNL1        0.0076
     24 C          65.6641   91.8619   13.4582 C.ar    1  UNL1        0.0378
     25 C          64.5870   90.9457   12.9579 C.ar    1  UNL1        0.1487
     26 C          63.9895   91.1623   11.5992 C.ar    1  UNL1        0.0378
     27 C          64.4690   92.2951   10.7409 C.ar    1  UNL1        0.0076
     28 C          67.7052   95.2944    8.6433 C.3     1  UNL1        0.1152
     29 N          67.2257   94.1616    9.5017 N.am    1  UNL1       -0.2726
     30 C          67.9462   92.8461    9.4787 C.3     1  UNL1        0.1152
     31 C          66.0257   94.3442   10.3829 C.2     1  UNL1        0.2491
     32 O          65.3053   95.6596   10.4058 O.2     1  UNL1       -0.2699
@<TRIPOS>BOND
     1    28    29    1
     2    29    30    1
     3    29    31   am
     4    31    32    2
     5    31    22    1
     6    22    23   ar
     7    23    24   ar
     8    24    25   ar
     9    25    21    1
    10    21     1    1
    11     1     2   ar
    12     2     3   ar
    13     3     7    1
    14     7     8   ar
    15     8     9   ar
    16     9    10   ar
    17    10    11    1
    18    10    12   ar
    19     3     4   ar
    20     4     5   ar
    21     5    15    1
    22    15    16    1
    23    16    17    1
    24    17    18    1
    25    18    19    1
    26    19    20    1
    27     5     6   ar
    28    25    26   ar
    29    26    27   ar
    30    27    22   ar
    31     6     1   ar
    32    12     7   ar
    33    20    15    1
    34    11    13    1
    35    11    14    1
@<TRIPOS>MOLECULE
*****
 32 35 0 0 0
SMALL
GASTEIGER

@<TRIPOS>ATOM
      1 C          62.7126   88.1450   12.4265 C.ar    1  UNL1        0.3283
      2 N          61.8508   88.3244   11.2119 N.ar    1  UNL1       -0.1741
      3 C          61.4277   87.1298   10.4095 C.ar    1  UNL1        0.1773
      4 N          61.8664   85.7559   10.8215 N.ar    1  UNL1       -0.1937
      5 C          62.7282   85.5765   12.0360 C.ar    1  UNL1        0.2255
      6 N          63.1514   86.7711   12.8385 N.ar    1  UNL1       -0.1607
      7 C          60.5658   87.3091    9.1949 C.ar    1  UNL1        0.0871
      8 C          59.9932   86.2100    8.3500 C.ar    1  UNL1        0.1104
      9 N          59.1988   86.8407    7.2450 N.ar    1  UNL1       -0.2228
     10 C          59.2804   88.3297    7.4069 C.ar    1  UNL1        0.1568
     11 N          58.6311   89.3500    6.5196 N.pl3   1  UNL1       -0.3375
     12 S          60.1253   88.6192    8.6121 S.2     1  UNL1       -0.0488
     13 H          58.0925   89.0600    5.7481 H       1  UNL1        0.1442
     14 H          58.7435   90.3096    6.7087 H       1  UNL1        0.1442
     15 N          63.1670   84.2025   12.4481 N.pl3   1  UNL1       -0.2729
     16 C          63.9722   83.3581   11.5054 C.3     1  UNL1        0.1257
     17 C          64.4109   81.9842   11.9174 C.3     1  UNL1        0.1637
     18 O          64.0445   81.4547   13.2721 O.3     1  UNL1       -0.3501
     19 C          63.2393   82.2991   14.2149 C.3     1  UNL1        0.1637
     20 C          62.8005   83.6730   13.8028 C.3     1  UNL1        0.1257
     21 O          63.1357   89.3396   13.2289 O.3     1  UNL1       -0.4222
     22 C          65.2529   92.7647   11.2198 C.ar    1  UNL1        0.0538
     23 C          64.1992   91.9961   10.4790 C.ar    1  UNL1        0.0076
     24 C          63.4934   90.8544   11.1487 C.ar    1  UNL1        0.0378
     25 C          63.8414   90.4813   12.5592 C.ar    1  UNL1        0.1487
     26 C          64.8951   91.2499   13.3000 C.ar    1  UNL1        0.0378
     27 C          65.6008   92.3916   12.6303 C.ar    1  UNL1        0.0076
     28 C          67.9606   94.8117    9.1636 C.3     1  UNL1        0.1152
     29 N          67.2548   93.6700    9.8333 N.am    1  UNL1       -0.2726
     30 C          67.8455   92.2920    9.7862 C.3     1  UNL1        0.1152
     31 C          65.9586   93.9064   10.5501 C.2     1  UNL1        0.2491
     32 O          65.3680   95.2844   10.5972 O.2     1  UNL1       -0.2699
@<TRIPOS>BOND
     1    28    29    1
     2    29    30    1
     3    29    31   am
     4    31    32    2
     5    31    22    1
     6    22    23   ar
     7    23    24   ar
     8    24    25   ar
     9    25    21    1
    10    21     1    1
    11     1     2   ar
    12     2     3   ar
    13     3     7    1
    14     7     8   ar
    15     8     9   ar
    16     9    10   ar
    17    10    11    1
    18    10    12   ar
    19     3     4   ar
    20     4     5   ar
    21     5    15    1
    22    15    16    1
    23    16    17    1
    24    17    18    1
    25    18    19    1
    26    19    20    1
    27     5     6   ar
    28    25    26   ar
    29    26    27   ar
    30    27    22   ar
    31     6     1   ar
    32    12     7   ar
    33    20    15    1
    34    11    13    1
    35    11    14    1
@<TRIPOS>MOLECULE
*****
 32 35 0 0 0
SMALL
GASTEIGER

@<TRIPOS>ATOM
      1 C          63.9762   87.9431   14.2105 C.ar    1  UNL1        0.3283
      2 N          63.1069   87.7638   13.0012 N.ar    1  UNL1       -0.1741
      3 C          62.9535   88.8837   12.0152 C.ar    1  UNL1        0.1773
      4 N          63.6693   90.1828   12.2383 N.ar    1  UNL1       -0.1937
      5 C          64.5386   90.3621   13.4475 C.ar    1  UNL1        0.2255
      6 N          64.6921   89.2422   14.4336 N.ar    1  UNL1       -0.1607
      7 C          62.0842   88.7044   10.8059 C.ar    1  UNL1        0.0871
      8 C          61.3757   89.7958   10.0597 C.ar    1  UNL1        0.1104
      9 N          60.6244   89.1682    8.9232 N.ar    1  UNL1       -0.2228
     10 C          60.8687   87.6888    8.9669 C.ar    1  UNL1        0.1568
     11 N          60.3090   86.6743    8.0144 N.pl3   1  UNL1       -0.3375
     12 S          61.7709   87.4022   10.1306 S.2     1  UNL1       -0.0488
     13 H          59.7226   86.9617    7.2777 H       1  UNL1        0.1442
     14 H          60.5280   85.7210    8.1259 H       1  UNL1        0.1442
     15 N          65.2544   91.6613   13.6706 N.pl3   1  UNL1       -0.2729
     16 C          65.8005   91.9932   15.0276 C.3     1  UNL1        0.1257
     17 C          66.5164   93.2924   15.2508 C.3     1  UNL1        0.1637
     18 O          66.6861   94.2596   14.1169 O.3     1  UNL1       -0.3501
     19 C          66.1400   93.9276   12.7598 C.3     1  UNL1        0.1637
     20 C          65.4242   92.6285   12.5367 C.3     1  UNL1        0.1257
     21 O          64.1296   86.8232   15.1965 O.3     1  UNL1       -0.4222
     22 C          63.4037   82.5738   13.9061 C.ar    1  UNL1        0.0538
     23 C          62.4130   83.2679   14.7931 C.ar    1  UNL1        0.0076
     24 C          62.6550   84.6844   15.2232 C.ar    1  UNL1        0.0378
     25 C          63.8877   85.4068   14.7664 C.ar    1  UNL1        0.1487
     26 C          64.8783   84.7126   13.8795 C.ar    1  UNL1        0.0378
     27 C          64.6363   83.2961   13.4493 C.ar    1  UNL1        0.0076
     28 C          62.6831   79.4265   11.5984 C.3     1  UNL1        0.1152
     29 N          62.9251   80.8430   12.0285 N.am    1  UNL1       -0.2726
     30 C          62.9306   81.9453   11.0111 C.3     1  UNL1        0.1152
     31 C          63.1617   81.1573   13.4760 C.2     1  UNL1        0.2491
     32 O          63.1562   80.0551   14.4934 O.2     1  UNL1       -0.2699
@<TRIPOS>BOND
     1    28    29    1
     2    29    30    1
     3    29    31   am
     4    31    32    2
     5    31    22    1
     6    22    23   ar
     7    23    24   ar
     8    24    25   ar
     9    25    21    1
    10    21     1    1
    11     1     2   ar
    12     2     3   ar
    13     3     7    1
    14     7     8   ar
    15     8     9   ar
    16     9    10   ar
    17    10    11    1
    18    10    12   ar
    19     3     4   ar
    20     4     5   ar
    21     5    15    1
    22    15    16    1
    23    16    17    1
    24    17    18    1
    25    18    19    1
    26    19    20    1
    27     5     6   ar
    28    25    26   ar
    29    26    27   ar
    30    27    22   ar
    31     6     1   ar
    32    12     7   ar
    33    20    15    1
    34    11    13    1
    35    11    14    1
@<TRIPOS>MOLECULE
*****
 32 35 0 0 0
SMALL
GASTEIGER

@<TRIPOS>ATOM
      1 C          62.4737   88.3585   11.4017 C.ar    1  UNL1        0.3283
      2 N          62.0531   87.8322   10.0614 N.ar    1  UNL1       -0.1741
      3 C          62.0698   86.3559    9.7965 C.ar    1  UNL1        0.1773
      4 N          62.5071   85.4058   10.8717 N.ar    1  UNL1       -0.1937
      5 C          62.9277   85.9320   12.2119 C.ar    1  UNL1        0.2255
      6 N          62.9110   87.4084   12.4769 N.ar    1  UNL1       -0.1607
      7 C          61.6492   85.8296    8.4562 C.ar    1  UNL1        0.0871
      8 C          60.2970   85.9956    7.8286 C.ar    1  UNL1        0.1104
      9 N          60.3191   85.3135    6.4928 N.ar    1  UNL1       -0.2228
     10 C          61.6851   84.7259    6.2949 C.ar    1  UNL1        0.1568
     11 N          62.1477   83.9548    5.0943 N.pl3   1  UNL1       -0.3375
     12 S          62.5071   85.0449    7.5084 S.2     1  UNL1       -0.0488
     13 H          61.5309   83.7961    4.3436 H       1  UNL1        0.1442
     14 H          63.0681   83.6074    5.0571 H       1  UNL1        0.1442
     15 N          63.3650   84.9820   13.2871 N.pl3   1  UNL1       -0.2729
     16 C          63.1928   83.5040   13.0976 C.3     1  UNL1        0.1257
     17 C          63.6301   82.5539   14.1728 C.3     1  UNL1        0.1637
     18 O          64.2395   83.0818   15.4376 O.3     1  UNL1       -0.3501
     19 C          64.4117   84.5598   15.6273 C.3     1  UNL1        0.1637
     20 C          63.9745   85.5099   14.5520 C.3     1  UNL1        0.1257
     21 O          62.4570   89.8348   11.6666 O.3     1  UNL1       -0.4222
     22 C          65.5618   91.6735   14.3554 C.ar    1  UNL1        0.0538
     23 C          65.3890   92.1792   12.9539 C.ar    1  UNL1        0.0076
     24 C          64.3541   91.5663   12.0576 C.ar    1  UNL1        0.0378
     25 C          63.4920   90.4477   12.5629 C.ar    1  UNL1        0.1487
     26 C          63.6647   89.9419   13.9644 C.ar    1  UNL1        0.0378
     27 C          64.6996   90.5548   14.8607 C.ar    1  UNL1        0.0076
     28 C          69.0568   92.9971   15.6906 C.3     1  UNL1        0.1152
     29 N          68.0219   92.3842   14.7943 N.am    1  UNL1       -0.2726
     30 C          68.4122   91.8692   13.4406 C.3     1  UNL1        0.1152
     31 C          66.5967   92.2864   15.2517 C.2     1  UNL1        0.2491
     32 O          66.2064   92.8014   16.6053 O.2     1  UNL1       -0.2699
@<TRIPOS>BOND
     1    28    29    1
     2    29    30    1
     3    29    31   am
     4    31    32    2
     5    31    22    1
     6    22    23   ar
     7    23    24   ar
     8    24    25   ar
     9    25    21    1
    10    21     1    1
    11     1     2   ar
    12     2     3   ar
    13     3     7    1
    14     7     8   ar
    15     8     9   ar
    16     9    10   ar
    17    10    11    1
    18    10    12   ar
    19     3     4   ar
    20     4     5   ar
    21     5    15    1
    22    15    16    1
    23    16    17    1
    24    17    18    1
    25    18    19    1
    26    19    20    1
    27     5     6   ar
    28    25    26   ar
    29    26    27   ar
    30    27    22   ar
    31     6     1   ar
    32    12     7   ar
    33    20    15    1
    34    11    13    1
    35    11    14    1
@<TRIPOS>MOLECULE
*****
 32 35 0 0 0
SMALL
GASTEIGER

@<TRIPOS>ATOM
      1 C          62.7724   89.2223   11.8965 C.ar    1  UNL1        0.3283
      2 N          63.2761   88.1793   12.8497 N.ar    1  UNL1       -0.1741
      3 C          63.0054   86.7280   12.5849 C.ar    1  UNL1        0.1773
      4 N          62.2311   86.3195   11.3669 N.ar    1  UNL1       -0.1937
      5 C          61.7274   87.3624   10.4137 C.ar    1  UNL1        0.2255
      6 N          61.9981   88.8139   10.6785 N.ar    1  UNL1       -0.1607
      7 C          63.5091   85.6849   13.5381 C.ar    1  UNL1        0.0871
      8 C          64.3593   85.9337   14.7485 C.ar    1  UNL1        0.1104
      9 N          64.6266   84.6126   15.4067 N.ar    1  UNL1       -0.2228
     10 C          63.9415   83.5472   14.6030 C.ar    1  UNL1        0.1568
     11 N          63.9463   82.0773   14.9017 N.pl3   1  UNL1       -0.3375
     12 S          63.2508   84.2101   13.4481 S.2     1  UNL1       -0.0488
     13 H          64.4311   81.7363   15.6878 H       1  UNL1        0.1442
     14 H          63.4645   81.4535   14.3117 H       1  UNL1        0.1442
     15 N          60.9531   86.9540    9.1957 N.pl3   1  UNL1       -0.2729
     16 C          61.5008   85.9029    8.2763 C.3     1  UNL1        0.1257
     17 C          60.7265   85.4945    7.0583 C.3     1  UNL1        0.1637
     18 O          59.4044   86.1371    6.7596 O.3     1  UNL1       -0.3501
     19 C          58.8566   87.1882    7.6790 C.3     1  UNL1        0.1637
     20 C          59.6310   87.5966    8.8970 C.3     1  UNL1        0.1257
     21 O          63.0431   90.6737   12.1614 O.3     1  UNL1       -0.4222
     22 C          67.0861   91.9735   13.6495 C.ar    1  UNL1        0.0538
     23 C          66.5744   92.4767   12.3323 C.ar    1  UNL1        0.0076
     24 C          65.2267   92.0434   11.8363 C.ar    1  UNL1        0.0378
     25 C          64.3908   91.1070   12.6574 C.ar    1  UNL1        0.1487
     26 C          64.9025   90.6039   13.9746 C.ar    1  UNL1        0.0378
     27 C          66.2502   91.0371   14.4706 C.ar    1  UNL1        0.0076
     28 C          69.8937   93.6421   15.9041 C.3     1  UNL1        0.1152
     29 N          68.5460   93.2088   15.4080 N.am    1  UNL1       -0.2726
     30 C          67.3106   93.5776   16.1746 C.3     1  UNL1        0.1152
     31 C          68.4338   92.4068   14.1455 C.2     1  UNL1        0.2491
     32 O          69.6693   92.0380   13.3790 O.2     1  UNL1       -0.2699
@<TRIPOS>BOND
     1    28    29    1
     2    29    30    1
     3    29    31   am
     4    31    32    2
     5    31    22    1
     6    22    23   ar
     7    23    24   ar
     8    24    25   ar
     9    25    21    1
    10    21     1    1
    11     1     2   ar
    12     2     3   ar
    13     3     7    1
    14     7     8   ar
    15     8     9   ar
    16     9    10   ar
    17    10    11    1
    18    10    12   ar
    19     3     4   ar
    20     4     5   ar
    21     5    15    1
    22    15    16    1
    23    16    17    1
    24    17    18    1
    25    18    19    1
    26    19    20    1
    27     5     6   ar
    28    25    26   ar
    29    26    27   ar
    30    27    22   ar
    31     6     1   ar
    32    12     7   ar
    33    20    15    1
    34    11    13    1
    35    11    14    1
@<TRIPOS>MOLECULE
*****
 32 35 0 0 0
SMALL
GASTEIGER

@<TRIPOS>ATOM
      1 C          64.2699   88.0276   14.1160 C.ar    1  UNL1        0.3283
      2 N          63.2200   87.8621   13.0574 N.ar    1  UNL1       -0.1741
      3 C          62.9006   88.9998   12.1336 C.ar    1  UNL1        0.1773
      4 N          63.6309   90.3031   12.2682 N.ar    1  UNL1       -0.1937
      5 C          64.6807   90.4686   13.3267 C.ar    1  UNL1        0.2255
      6 N          65.0002   89.3309   14.2506 N.ar    1  UNL1       -0.1607
      7 C          61.8508   88.8343   11.0750 C.ar    1  UNL1        0.0871
      8 C          60.7473   87.8183   11.0788 C.ar    1  UNL1        0.1104
      9 N          59.9347   88.0118    9.8329 N.ar    1  UNL1       -0.2228
     10 C          60.5360   89.1474    9.0590 C.ar    1  UNL1        0.1568
     11 N          60.0401   89.6810    7.7478 N.pl3   1  UNL1       -0.3375
     12 S          61.7202   89.6558    9.8267 S.2     1  UNL1       -0.0488
     13 H          59.2501   89.2787    7.3197 H       1  UNL1        0.1442
     14 H          60.5046   90.4336    7.3153 H       1  UNL1        0.1442
     15 N          65.4111   91.7719   13.4613 N.pl3   1  UNL1       -0.2729
     16 C          65.4410   92.7369   12.3134 C.3     1  UNL1        0.1257
     17 C          66.1713   94.0402   12.4481 C.3     1  UNL1        0.1637
     18 O          66.8718   94.3784   13.7306 O.3     1  UNL1       -0.3501
     19 C          66.8419   93.4133   14.8786 C.3     1  UNL1        0.1637
     20 C          66.1115   92.1100   14.7440 C.3     1  UNL1        0.1257
     21 O          64.5893   86.8900   15.0399 O.3     1  UNL1       -0.4222
     22 C          62.6187   82.8882   14.4464 C.ar    1  UNL1        0.0538
     23 C          63.5408   83.4332   13.3963 C.ar    1  UNL1        0.0076
     24 C          64.1976   84.7671   13.5942 C.ar    1  UNL1        0.0378
     25 C          63.9324   85.5560   14.8420 C.ar    1  UNL1        0.1487
     26 C          63.0103   85.0110   15.8921 C.ar    1  UNL1        0.0378
     27 C          62.3535   83.6771   15.6943 C.ar    1  UNL1        0.0076
     28 C          62.1313   79.0253   13.6778 C.3     1  UNL1        0.1152
     29 N          62.7881   80.3592   13.8757 N.am    1  UNL1       -0.2726
     30 C          64.2714   80.4981   13.7006 C.3     1  UNL1        0.1152
     31 C          61.9618   81.5542   14.2486 C.2     1  UNL1        0.2491
     32 O          60.4786   81.4153   14.4236 O.2     1  UNL1       -0.2699
@<TRIPOS>BOND
     1    28    29    1
     2    29    30    1
     3    29    31   am
     4    31    32    2
     5    31    22    1
     6    22    23   ar
     7    23    24   ar
     8    24    25   ar
     9    25    21    1
    10    21     1    1
    11     1     2   ar
    12     2     3   ar
    13     3     7    1
    14     7     8   ar
    15     8     9   ar
    16     9    10   ar
    17    10    11    1
    18    10    12   ar
    19     3     4   ar
    20     4     5   ar
    21     5    15    1
    22    15    16    1
    23    16    17    1
    24    17    18    1
    25    18    19    1
    26    19    20    1
    27     5     6   ar
    28    25    26   ar
    29    26    27   ar
    30    27    22   ar
    31     6     1   ar
    32    12     7   ar
    33    20    15    1
    34    11    13    1
    35    11    14    1
