@<TRIPOS>MOLECULE
*****
 20 21 0 0 0
SMALL
GASTEIGER

@<TRIPOS>ATOM
      1 C          66.3406   92.8087   12.1495 C.3     1  UNL1        0.3170
      2 N          66.8499   93.4031   10.8699 N.ar    1  UNL1       -0.2686
      3 C          66.7174   94.8368   10.4495 C.ar    1  UNL1        0.1011
      4 C          67.3667   94.9879    9.1058 C.ar    1  UNL1        0.1194
      5 N          67.9004   93.6474    8.6956 N.ar    1  UNL1       -0.2222
      6 C          67.5810   92.6680    9.7859 C.ar    1  UNL1        0.1815
      7 C          67.3079   92.3231   13.1881 C.2     1  UNL1        0.2123
      8 O          68.5731   91.6340   12.7706 O.2     1  UNL1       -0.2902
      9 C          67.1270   91.0491   14.8744 C.3     1  UNL1        0.0075
     10 C          67.0099   92.5266   14.6440 C.3     1  UNL1        0.0571
     11 C          66.8928   94.0041   14.4135 C.3     1  UNL1        0.0075
     12 C          66.7119   92.7301   16.0999 C.3     1  UNL1        0.0075
     13 O          64.8641   92.7001   12.3905 O.3     1  UNL1       -0.4518
     14 C          64.1398   91.4315   12.0494 C.ar    1  UNL1        0.1413
     15 C          64.0415   90.3286   13.0613 C.ar    1  UNL1        0.0379
     16 C          63.3173   89.0602   12.7201 C.ar    1  UNL1        0.0145
     17 C          62.6913   88.8946   11.3670 C.ar    1  UNL1        0.0579
     18 CL         61.9670   87.6261   11.0259 Cl      1  UNL1       -0.0822
     19 C          62.7896   89.9975   10.3552 C.ar    1  UNL1        0.0145
     20 C          63.5139   91.2659   10.6963 C.ar    1  UNL1        0.0379
@<TRIPOS>BOND
     1     9    10    1
     2    10    11    1
     3    10    12    1
     4    10     7    1
     5     7     8    2
     6     7     1    1
     7     1    13    1
     8    13    14    1
     9    14    15   ar
    10    15    16   ar
    11    16    17   ar
    12    17    18    1
    13    17    19   ar
    14    19    20   ar
    15     1     2    1
    16     2     3   ar
    17     3     4   ar
    18     4     5   ar
    19     5     6   ar
    20    20    14   ar
    21     6     2   ar
@<TRIPOS>MOLECULE
*****
 20 21 0 0 0
SMALL
GASTEIGER

@<TRIPOS>ATOM
      1 C          65.3313   92.1132   13.0639 C.3     1  UNL1        0.3170
      2 N          65.9814   92.9767   12.0238 N.ar    1  UNL1       -0.2686
      3 C          66.4630   92.5238   10.6773 C.ar    1  UNL1        0.1011
      4 C          67.0432   93.7118    9.9688 C.ar    1  UNL1        0.1194
      5 N          66.9201   94.8990   10.8774 N.ar    1  UNL1       -0.2222
      6 C          66.2639   94.4446   12.1474 C.ar    1  UNL1        0.1815
      7 C          66.1542   91.5256   14.1719 C.2     1  UNL1        0.2123
      8 O          65.8809   90.1304   14.6503 O.2     1  UNL1       -0.2902
      9 C          68.2343   91.7578   13.8264 C.3     1  UNL1        0.0075
     10 C          67.2504   92.3331   14.8015 C.3     1  UNL1        0.0571
     11 C          66.2664   92.9084   15.7766 C.3     1  UNL1        0.0075
     12 C          68.3465   93.1406   15.4310 C.3     1  UNL1        0.0075
     13 O          63.8585   91.8374   12.9961 O.3     1  UNL1       -0.4518
     14 C          63.3404   90.7429   12.1108 C.ar    1  UNL1        0.1413
     15 C          62.8870   91.0578   10.7161 C.ar    1  UNL1        0.0379
     16 C          62.3689   89.9633    9.8308 C.ar    1  UNL1        0.0145
     17 C          62.3043   88.5539   10.3403 C.ar    1  UNL1        0.0579
     18 CL         61.7862   87.4595    9.4549 Cl      1  UNL1       -0.0822
     19 C          62.7578   88.2390   11.7349 C.ar    1  UNL1        0.0145
     20 C          63.2758   89.3335   12.6202 C.ar    1  UNL1        0.0379
@<TRIPOS>BOND
     1     9    10    1
     2    10    11    1
     3    10    12    1
     4    10     7    1
     5     7     8    2
     6     7     1    1
     7     1    13    1
     8    13    14    1
     9    14    15   ar
    10    15    16   ar
    11    16    17   ar
    12    17    18    1
    13    17    19   ar
    14    19    20   ar
    15     1     2    1
    16     2     3   ar
    17     3     4   ar
    18     4     5   ar
    19     5     6   ar
    20    20    14   ar
    21     6     2   ar
@<TRIPOS>MOLECULE
*****
 20 21 0 0 0
SMALL
GASTEIGER

@<TRIPOS>ATOM
      1 C          63.1663   84.6604   13.7983 C.3     1  UNL1        0.3170
      2 N          63.0541   83.1657   13.8559 N.ar    1  UNL1       -0.2686
      3 C          64.0076   82.1855   13.2395 C.ar    1  UNL1        0.1011
      4 C          63.5115   80.8028   13.5427 C.ar    1  UNL1        0.1194
      5 N          62.2514   80.9283   14.3466 N.ar    1  UNL1       -0.2222
      6 C          61.9687   82.3887   14.5402 C.ar    1  UNL1        0.1815
      7 C          64.1992   85.3674   14.6251 C.2     1  UNL1        0.2123
      8 O          65.6432   84.9762   14.5164 O.2     1  UNL1       -0.2902
      9 C          63.1604   85.4536   16.4726 C.3     1  UNL1        0.0075
     10 C          63.7880   86.4655   15.5604 C.3     1  UNL1        0.0571
     11 C          64.4157   87.4774   14.6483 C.3     1  UNL1        0.0075
     12 C          63.3769   87.5637   16.4958 C.3     1  UNL1        0.0075
     13 O          62.2457   85.4480   12.9140 O.3     1  UNL1       -0.4518
     14 C          62.3549   85.3297   11.4227 C.ar    1  UNL1        0.1413
     15 C          63.3020   84.3370   10.8164 C.ar    1  UNL1        0.0379
     16 C          63.4112   84.2187    9.3251 C.ar    1  UNL1        0.0145
     17 C          62.5732   85.0930    8.4401 C.ar    1  UNL1        0.0579
     18 CL         62.6824   84.9746    6.9487 Cl      1  UNL1       -0.0822
     19 C          61.6261   86.0857    9.0463 C.ar    1  UNL1        0.0145
     20 C          61.5169   86.2040   10.5376 C.ar    1  UNL1        0.0379
@<TRIPOS>BOND
     1     9    10    1
     2    10    11    1
     3    10    12    1
     4    10     7    1
     5     7     8    2
     6     7     1    1
     7     1    13    1
     8    13    14    1
     9    14    15   ar
    10    15    16   ar
    11    16    17   ar
    12    17    18    1
    13    17    19   ar
    14    19    20   ar
    15     1     2    1
    16     2     3   ar
    17     3     4   ar
    18     4     5   ar
    19     5     6   ar
    20    20    14   ar
    21     6     2   ar
@<TRIPOS>MOLECULE
*****
 20 21 0 0 0
SMALL
GASTEIGER

@<TRIPOS>ATOM
      1 C          66.3449   92.8644   12.0308 C.3     1  UNL1        0.3170
      2 N          66.8393   92.7492   13.4423 N.ar    1  UNL1       -0.2686
      3 C          67.5074   91.5503   14.0475 C.ar    1  UNL1        0.1011
      4 C          67.8333   91.8728   15.4757 C.ar    1  UNL1        0.1194
      5 N          67.3666   93.2711   15.7532 N.ar    1  UNL1       -0.2222
      6 C          66.7522   93.8127   14.4966 C.ar    1  UNL1        0.1815
      7 C          67.3242   92.9727   10.8997 C.2     1  UNL1        0.2123
      8 O          68.4248   91.9630   10.7613 O.2     1  UNL1       -0.2902
      9 C          67.9237   93.2619    8.8855 C.3     1  UNL1        0.0075
     10 C          67.2029   94.0907    9.9070 C.3     1  UNL1        0.0571
     11 C          66.4821   94.9194   10.9285 C.3     1  UNL1        0.0075
     12 C          67.0816   95.2086    8.9144 C.3     1  UNL1        0.0075
     13 O          64.8714   92.8714   11.7504 O.3     1  UNL1       -0.4518
     14 C          64.1269   91.5758   11.6189 C.ar    1  UNL1        0.1413
     15 C          64.0908   90.6116   12.7673 C.ar    1  UNL1        0.0379
     16 C          63.3463   89.3161   12.6357 C.ar    1  UNL1        0.0145
     17 C          62.6378   88.9848   11.3557 C.ar    1  UNL1        0.0579
     18 CL         61.8932   87.6893   11.2242 Cl      1  UNL1       -0.0822
     19 C          62.6739   89.9491   10.2073 C.ar    1  UNL1        0.0145
     20 C          63.4184   91.2446   10.3389 C.ar    1  UNL1        0.0379
@<TRIPOS>BOND
     1     9    10    1
     2    10    11    1
     3    10    12    1
     4    10     7    1
     5     7     8    2
     6     7     1    1
     7     1    13    1
     8    13    14    1
     9    14    15   ar
    10    15    16   ar
    11    16    17   ar
    12    17    18    1
    13    17    19   ar
    14    19    20   ar
    15     1     2    1
    16     2     3   ar
    17     3     4   ar
    18     4     5   ar
    19     5     6   ar
    20    20    14   ar
    21     6     2   ar
@<TRIPOS>MOLECULE
*****
 20 21 0 0 0
SMALL
GASTEIGER

@<TRIPOS>ATOM
      1 C          65.6855   92.1549   12.9941 C.3     1  UNL1        0.3170
      2 N          64.6638   91.3102   13.6960 N.ar    1  UNL1       -0.2686
      3 C          64.6497   90.9766   15.1583 C.ar    1  UNL1        0.1011
      4 C          63.4539   90.1111   15.4249 C.ar    1  UNL1        0.1194
      5 N          62.7290   89.9098   14.1272 N.ar    1  UNL1       -0.2222
      6 C          63.4767   90.6509   13.0588 C.ar    1  UNL1        0.1815
      7 C          66.5475   93.0976   13.7806 C.2     1  UNL1        0.2123
      8 O          66.2362   94.5648   13.7936 O.2     1  UNL1       -0.2902
      9 C          67.2712   93.3443   15.7593 C.3     1  UNL1        0.0075
     10 C          67.7208   92.5729   14.5540 C.3     1  UNL1        0.0571
     11 C          68.1704   91.8016   13.3487 C.3     1  UNL1        0.0075
     12 C          68.8941   92.0483   15.3273 C.3     1  UNL1        0.0075
     13 O          65.8453   92.0569   11.5059 O.3     1  UNL1       -0.4518
     14 C          66.2820   93.2562   10.7179 C.ar    1  UNL1        0.1413
     15 C          67.5392   93.2002    9.9016 C.ar    1  UNL1        0.0379
     16 C          67.9758   94.3995    9.1136 C.ar    1  UNL1        0.0145
     17 C          67.1553   95.6549    9.1419 C.ar    1  UNL1        0.0579
     18 CL         67.5920   96.8542    8.3539 Cl      1  UNL1       -0.0822
     19 C          65.8982   95.7109    9.9582 C.ar    1  UNL1        0.0145
     20 C          65.4615   94.5116   10.7462 C.ar    1  UNL1        0.0379
@<TRIPOS>BOND
     1     9    10    1
     2    10    11    1
     3    10    12    1
     4    10     7    1
     5     7     8    2
     6     7     1    1
     7     1    13    1
     8    13    14    1
     9    14    15   ar
    10    15    16   ar
    11    16    17   ar
    12    17    18    1
    13    17    19   ar
    14    19    20   ar
    15     1     2    1
    16     2     3   ar
    17     3     4   ar
    18     4     5   ar
    19     5     6   ar
    20    20    14   ar
    21     6     2   ar
@<TRIPOS>MOLECULE
*****
 20 21 0 0 0
SMALL
GASTEIGER

@<TRIPOS>ATOM
      1 C          62.2357   86.8206   10.8016 C.3     1  UNL1        0.3170
      2 N          61.9116   86.2331    9.4600 N.ar    1  UNL1       -0.2686
      3 C          60.5616   86.2195    8.8063 C.ar    1  UNL1        0.1011
      4 C          60.6962   85.5341    7.4789 C.ar    1  UNL1        0.1194
      5 N          62.1294   85.1240    7.3122 N.ar    1  UNL1       -0.2222
      6 C          62.8805   85.5560    8.5366 C.ar    1  UNL1        0.1815
      7 C          61.5734   88.0919   11.2434 C.2     1  UNL1        0.2123
      8 O          60.2226   88.0470   11.8941 O.2     1  UNL1       -0.2902
      9 C          63.1104   89.1563   12.2456 C.3     1  UNL1        0.0075
     10 C          62.2619   89.4081   11.0346 C.3     1  UNL1        0.0571
     11 C          61.4133   89.6598    9.8236 C.3     1  UNL1        0.0075
     12 C          62.9504   90.7242   10.8258 C.3     1  UNL1        0.0075
     13 O          63.2220   86.1368   11.7013 O.3     1  UNL1       -0.4518
     14 C          62.8974   84.7948   12.2877 C.ar    1  UNL1        0.1413
     15 C          62.8507   83.5824   11.4057 C.ar    1  UNL1        0.0379
     16 C          62.5261   82.2405   11.9920 C.ar    1  UNL1        0.0145
     17 C          62.2483   82.1109   13.4604 C.ar    1  UNL1        0.0579
     18 CL         61.9237   80.7689   14.0467 Cl      1  UNL1       -0.0822
     19 C          62.2950   83.3233   14.3423 C.ar    1  UNL1        0.0145
     20 C          62.6196   84.6652   13.7560 C.ar    1  UNL1        0.0379
@<TRIPOS>BOND
     1     9    10    1
     2    10    11    1
     3    10    12    1
     4    10     7    1
     5     7     8    2
     6     7     1    1
     7     1    13    1
     8    13    14    1
     9    14    15   ar
    10    15    16   ar
    11    16    17   ar
    12    17    18    1
    13    17    19   ar
    14    19    20   ar
    15     1     2    1
    16     2     3   ar
    17     3     4   ar
    18     4     5   ar
    19     5     6   ar
    20    20    14   ar
    21     6     2   ar
@<TRIPOS>MOLECULE
*****
 20 21 0 0 0
SMALL
GASTEIGER

@<TRIPOS>ATOM
      1 C          63.6038   83.8542   13.7126 C.3     1  UNL1        0.3170
      2 N          63.2942   84.2149   12.2899 N.ar    1  UNL1       -0.2686
      3 C          62.3019   85.2448   11.8374 C.ar    1  UNL1        0.1011
      4 C          62.3170   85.2756   10.3378 C.ar    1  UNL1        0.1194
      5 N          63.3186   84.2647    9.8635 N.ar    1  UNL1       -0.2222
      6 C          63.9225   83.6092   11.0699 C.ar    1  UNL1        0.1815
      7 C          62.9073   82.6946   14.3609 C.2     1  UNL1        0.2123
      8 O          62.3616   82.8297   15.7516 O.2     1  UNL1       -0.2902
      9 C          61.2668   81.4850   13.7731 C.3     1  UNL1        0.0075
     10 C          62.7564   81.4000   13.6185 C.3     1  UNL1        0.0571
     11 C          64.2459   81.3150   13.4640 C.3     1  UNL1        0.0075
     12 C          62.6055   80.1054   12.8762 C.3     1  UNL1        0.0075
     13 O          64.6100   84.6529   14.4869 O.3     1  UNL1       -0.4518
     14 C          64.2222   85.9752   15.0797 C.ar    1  UNL1        0.1413
     15 C          63.5370   86.0273   16.4131 C.ar    1  UNL1        0.0379
     16 C          63.1493   87.3495   17.0058 C.ar    1  UNL1        0.0145
     17 C          63.4468   88.6196   16.2652 C.ar    1  UNL1        0.0579
     18 CL         63.0590   89.9418   16.8580 Cl      1  UNL1       -0.0822
     19 C          64.1319   88.5674   14.9319 C.ar    1  UNL1        0.0145
     20 C          64.5197   87.2452   14.3392 C.ar    1  UNL1        0.0379
@<TRIPOS>BOND
     1     9    10    1
     2    10    11    1
     3    10    12    1
     4    10     7    1
     5     7     8    2
     6     7     1    1
     7     1    13    1
     8    13    14    1
     9    14    15   ar
    10    15    16   ar
    11    16    17   ar
    12    17    18    1
    13    17    19   ar
    14    19    20   ar
    15     1     2    1
    16     2     3   ar
    17     3     4   ar
    18     4     5   ar
    19     5     6   ar
    20    20    14   ar
    21     6     2   ar
@<TRIPOS>MOLECULE
*****
 20 21 0 0 0
SMALL
GASTEIGER

@<TRIPOS>ATOM
      1 C          65.5087   92.3770   12.8483 C.3     1  UNL1        0.3170
      2 N          66.7682   92.5348   13.6475 N.ar    1  UNL1       -0.2686
      3 C          66.9440   93.4109   14.8523 C.ar    1  UNL1        0.1011
      4 C          68.3575   93.2618   15.3317 C.ar    1  UNL1        0.1194
      5 N          69.0554   92.2936   14.4231 N.ar    1  UNL1       -0.2222
      6 C          68.0731   91.8443   13.3823 C.ar    1  UNL1        0.1815
      7 C          65.5493   92.4952   11.3535 C.2     1  UNL1        0.2123
      8 O          64.6476   91.6442   10.5091 O.2     1  UNL1       -0.2902
      9 C          65.7530   94.6066   11.3354 C.3     1  UNL1        0.0075
     10 C          66.4914   93.4643   10.7030 C.3     1  UNL1        0.0571
     11 C          67.2298   92.3220   10.0706 C.3     1  UNL1        0.0075
     12 C          67.4335   94.4334   10.0525 C.3     1  UNL1        0.0075
     13 O          64.2087   92.1011   13.5438 O.3     1  UNL1       -0.4518
     14 C          64.0264   90.8276   14.3153 C.ar    1  UNL1        0.1413
     15 C          64.4282   89.5173   13.7057 C.ar    1  UNL1        0.0379
     16 C          64.2459   88.2439   14.4771 C.ar    1  UNL1        0.0145
     17 C          63.6617   88.2808   15.8582 C.ar    1  UNL1        0.0579
     18 CL         63.4794   87.0073   16.6296 Cl      1  UNL1       -0.0822
     19 C          63.2599   89.5911   16.4678 C.ar    1  UNL1        0.0145
     20 C          63.4422   90.8644   15.6964 C.ar    1  UNL1        0.0379
@<TRIPOS>BOND
     1     9    10    1
     2    10    11    1
     3    10    12    1
     4    10     7    1
     5     7     8    2
     6     7     1    1
     7     1    13    1
     8    13    14    1
     9    14    15   ar
    10    15    16   ar
    11    16    17   ar
    12    17    18    1
    13    17    19   ar
    14    19    20   ar
    15     1     2    1
    16     2     3   ar
    17     3     4   ar
    18     4     5   ar
    19     5     6   ar
    20    20    14   ar
    21     6     2   ar
@<TRIPOS>MOLECULE
*****
 20 21 0 0 0
SMALL
GASTEIGER

@<TRIPOS>ATOM
      1 C          61.9836   87.8363   10.6017 C.3     1  UNL1        0.3170
      2 N          62.7377   88.7307   11.5405 N.ar    1  UNL1       -0.2686
      3 C          62.9195   90.2122   11.3920 C.ar    1  UNL1        0.1011
      4 C          63.7367   90.6977   12.5524 C.ar    1  UNL1        0.1194
      5 N          64.0600   89.5162   13.4181 N.ar    1  UNL1       -0.2222
      6 C          63.4426   88.3005   12.7927 C.ar    1  UNL1        0.1815
      7 C          60.5114   88.0368   10.3950 C.2     1  UNL1        0.2123
      8 O          59.5884   88.0885   11.5763 O.2     1  UNL1       -0.2902
      9 C          59.6826   86.7128    8.9598 C.3     1  UNL1        0.0075
     10 C          59.9623   88.1857    9.0071 C.3     1  UNL1        0.0571
     11 C          60.2420   89.6586    9.0544 C.3     1  UNL1        0.0075
     12 C          59.4132   88.3345    7.6192 C.3     1  UNL1        0.0075
     13 O          62.7014   86.7416    9.8696 O.3     1  UNL1       -0.4518
     14 C          62.8611   85.3928   10.5064 C.ar    1  UNL1        0.1413
     15 C          62.3648   85.1590   11.9024 C.ar    1  UNL1        0.0379
     16 C          62.5245   83.8103   12.5391 C.ar    1  UNL1        0.0145
     17 C          63.1806   82.6954   11.7798 C.ar    1  UNL1        0.0579
     18 CL         63.3403   81.3467   12.4166 Cl      1  UNL1       -0.0822
     19 C          63.6769   82.9292   10.3838 C.ar    1  UNL1        0.0145
     20 C          63.5172   84.2779    9.7471 C.ar    1  UNL1        0.0379
@<TRIPOS>BOND
     1     9    10    1
     2    10    11    1
     3    10    12    1
     4    10     7    1
     5     7     8    2
     6     7     1    1
     7     1    13    1
     8    13    14    1
     9    14    15   ar
    10    15    16   ar
    11    16    17   ar
    12    17    18    1
    13    17    19   ar
    14    19    20   ar
    15     1     2    1
    16     2     3   ar
    17     3     4   ar
    18     4     5   ar
    19     5     6   ar
    20    20    14   ar
    21     6     2   ar
