@<TRIPOS>MOLECULE
*****
 31 33 0 0 0
SMALL
GASTEIGER

@<TRIPOS>ATOM
      1 N          63.5500   87.7010   13.2241 N.am    1  UNL1       -0.2681
      2 C          64.1649   86.5961   14.0309 C.2     1  UNL1        0.3077
      3 O          65.3531   86.8758   14.9028 O.2     1  UNL1       -0.2522
      4 N          63.5918   85.2114   13.9660 N.am    1  UNL1       -0.2632
      5 C          63.9227   83.8954   14.6054 C.3     1  UNL1        0.1010
      6 C          62.7812   83.2532   13.8742 C.3     1  UNL1        0.0636
      7 C          62.4504   84.5691   13.2349 C.3     1  UNL1        0.1010
      8 H          62.7701   87.5173   12.6520 H       1  UNL1        0.1564
      9 C          62.2081   81.8686   13.8093 C.ar    1  UNL1        0.0012
     10 C          63.0524   80.7296   13.3195 C.ar    1  UNL1        0.0948
     11 N          62.4793   79.3449   13.2545 N.ar    1  UNL1       -0.2414
     12 C          61.0618   79.0993   13.6794 C.ar    1  UNL1        0.1129
     13 C          60.2175   80.2382   14.1692 C.ar    1  UNL1        0.0607
     14 N          58.8001   79.9926   14.5940 N.pl3   1  UNL1       -0.3558
     15 C          60.7907   81.6229   14.2341 C.ar    1  UNL1        0.0130
     16 H          58.4239   79.0838   14.5514 H       1  UNL1        0.1424
     17 H          58.2459   80.7401   14.9154 H       1  UNL1        0.1424
     18 C          65.2694   91.8549   13.4189 C.ar    1  UNL1       -0.0044
     19 C          65.5440   90.8770   14.5226 C.ar    1  UNL1       -0.0014
     20 C          64.9709   89.4924   14.4577 C.ar    1  UNL1        0.0144
     21 C          64.1231   89.0856   13.2891 C.ar    1  UNL1        0.0516
     22 C          63.8485   90.0635   12.1853 C.ar    1  UNL1        0.0144
     23 C          64.4217   91.4482   12.2503 C.ar    1  UNL1       -0.0014
     24 C          65.8426   93.2396   13.4839 C.3     1  UNL1        0.0941
     25 C          66.5348   93.7071   14.7297 C.3     1  UNL1        0.0262
     26 C          66.6376   93.9865   11.1259 C.2     1  UNL1        0.2226
     27 O          67.6708   92.8991   11.1298 O.2     1  UNL1       -0.2751
     28 N          65.7235   94.1567   12.3029 N.am    1  UNL1       -0.3022
     29 H          65.0454   94.8704   12.3004 H       1  UNL1        0.1497
     30 C          67.6481   95.0141    8.9642 C.3     1  UNL1        0.0101
     31 C          66.5185   94.9037    9.9449 C.3     1  UNL1        0.0851
@<TRIPOS>BOND
     1    30    31    1
     2    31    26    1
     3    26    27    2
     4    26    28   am
     5    28    24    1
     6    24    25    1
     7    24    18    1
     8    18    19   ar
     9    19    20   ar
    10    20    21   ar
    11    21     1    1
    12     1     2   am
    13     2     3    2
    14     2     4   am
    15     4     5    1
    16     5     6    1
    17     6     9    1
    18     9    10   ar
    19    10    11   ar
    20    11    12   ar
    21    12    13   ar
    22    13    14    1
    23    13    15   ar
    24     6     7    1
    25    21    22   ar
    26    22    23   ar
    27    23    18   ar
    28     7     4    1
    29    15     9   ar
    30    28    29    1
    31     1     8    1
    32    14    16    1
    33    14    17    1
@<TRIPOS>MOLECULE
*****
 31 33 0 0 0
SMALL
GASTEIGER

@<TRIPOS>ATOM
      1 N          62.3557   93.1503    1.1191 N.am    1  UNL1       -0.2681
      2 C          61.8883   92.9607   -0.2935 C.2     1  UNL1        0.3077
      3 O          60.6097   92.2259   -0.5682 O.2     1  UNL1       -0.2522
      4 N          62.6993   93.5058   -1.4315 N.am    1  UNL1       -0.2632
      5 C          62.5600   93.5138   -2.9251 C.3     1  UNL1        0.1010
      6 C          63.8463   94.2767   -3.0409 C.3     1  UNL1        0.0636
      7 C          63.9856   94.2686   -1.5475 C.3     1  UNL1        0.1010
      8 H          63.1949   93.6326    1.2993 H       1  UNL1        0.1564
      9 C          64.6574   94.8218   -4.1789 C.ar    1  UNL1        0.0012
     10 C          64.9194   96.2957   -4.2747 C.ar    1  UNL1        0.0948
     11 N          65.7304   96.8408   -5.4127 N.ar    1  UNL1       -0.2414
     12 C          66.2795   95.9121   -6.4548 C.ar    1  UNL1        0.1129
     13 C          66.0174   94.4383   -6.3590 C.ar    1  UNL1        0.0607
     14 N          66.5664   93.5096   -7.4011 N.pl3   1  UNL1       -0.3558
     15 C          65.2064   93.8932   -5.2210 C.ar    1  UNL1        0.0130
     16 H          67.0988   93.8674   -8.1480 H       1  UNL1        0.1424
     17 H          66.3945   92.5423   -7.3383 H       1  UNL1        0.1424
     18 C          59.9225   91.5149    4.5330 C.ar    1  UNL1       -0.0044
     19 C          61.3515   91.0927    4.3606 C.ar    1  UNL1       -0.0014
     20 C          62.1626   91.6378    3.2226 C.ar    1  UNL1        0.0144
     21 C          61.5447   92.6052    2.2571 C.ar    1  UNL1        0.0516
     22 C          60.1157   93.0274    2.4295 C.ar    1  UNL1        0.0144
     23 C          59.3047   92.4823    3.5675 C.ar    1  UNL1       -0.0014
     24 C          59.1115   90.9698    5.6710 C.3     1  UNL1        0.0941
     25 C          57.6215   90.8548    5.5426 C.3     1  UNL1        0.0262
     26 C          59.6459   89.1281    7.4239 C.2     1  UNL1        0.2226
     27 O          58.8224   88.1467    6.6438 O.2     1  UNL1       -0.2751
     28 N          59.7905   90.5397    6.9375 N.am    1  UNL1       -0.3022
     29 H          60.3310   91.1838    7.4495 H       1  UNL1        0.1497
     30 C          60.1443   87.2990    9.2004 C.3     1  UNL1        0.0101
     31 C          60.3249   88.6980    8.6904 C.3     1  UNL1        0.0851
@<TRIPOS>BOND
     1    30    31    1
     2    31    26    1
     3    26    27    2
     4    26    28   am
     5    28    24    1
     6    24    25    1
     7    24    18    1
     8    18    19   ar
     9    19    20   ar
    10    20    21   ar
    11    21     1    1
    12     1     2   am
    13     2     3    2
    14     2     4   am
    15     4     5    1
    16     5     6    1
    17     6     9    1
    18     9    10   ar
    19    10    11   ar
    20    11    12   ar
    21    12    13   ar
    22    13    14    1
    23    13    15   ar
    24     6     7    1
    25    21    22   ar
    26    22    23   ar
    27    23    18   ar
    28     7     4    1
    29    15     9   ar
    30    28    29    1
    31     1     8    1
    32    14    16    1
    33    14    17    1
@<TRIPOS>MOLECULE
*****
 31 33 0 0 0
SMALL
GASTEIGER

@<TRIPOS>ATOM
      1 N          63.4848   87.6384   13.0944 N.am    1  UNL1       -0.2681
      2 C          64.0662   86.5634   13.9639 C.2     1  UNL1        0.3077
      3 O          65.2130   86.8770   14.8786 O.2     1  UNL1       -0.2522
      4 N          63.5010   85.1747   13.9188 N.am    1  UNL1       -0.2632
      5 C          63.8069   83.8819   14.6154 C.3     1  UNL1        0.1010
      6 C          62.7016   83.2108   13.8551 C.3     1  UNL1        0.0636
      7 C          62.3957   84.5036   13.1586 C.3     1  UNL1        0.1010
      8 H          62.7321   87.4326   12.4941 H       1  UNL1        0.1564
      9 C          62.1363   81.8222   13.8100 C.ar    1  UNL1        0.0012
     10 C          62.9873   80.6810   13.3369 C.ar    1  UNL1        0.0948
     11 N          62.4220   79.2923   13.2918 N.ar    1  UNL1       -0.2414
     12 C          61.0058   79.0448   13.7198 C.ar    1  UNL1        0.1129
     13 C          60.1549   80.1859   14.1928 C.ar    1  UNL1        0.0607
     14 N          58.7388   79.9383   14.6208 N.pl3   1  UNL1       -0.3558
     15 C          60.7202   81.5746   14.2379 C.ar    1  UNL1        0.0130
     16 H          58.3678   79.0269   14.5912 H       1  UNL1        0.1424
     17 H          58.1803   80.6872   14.9313 H       1  UNL1        0.1424
     18 C          65.1805   91.8045   13.2297 C.ar    1  UNL1       -0.0044
     19 C          65.4233   90.8586   14.3682 C.ar    1  UNL1       -0.0014
     20 C          64.8581   89.4699   14.3231 C.ar    1  UNL1        0.0144
     21 C          64.0500   89.0271   13.1395 C.ar    1  UNL1        0.0516
     22 C          63.8072   89.9730   12.0010 C.ar    1  UNL1        0.0144
     23 C          64.3725   91.3617   12.0461 C.ar    1  UNL1       -0.0014
     24 C          65.7458   93.1932   13.2748 C.3     1  UNL1        0.0941
     25 C          65.6804   94.0694   12.0591 C.3     1  UNL1        0.0262
     26 C          67.7837   93.3185   14.8813 C.2     1  UNL1        0.2226
     27 O          68.5604   92.4188   13.9663 O.2     1  UNL1       -0.2751
     28 N          66.3764   93.7057   14.5356 N.am    1  UNL1       -0.3022
     29 H          65.8666   94.2962   15.1361 H       1  UNL1        0.1497
     30 C          69.8585   94.2365   16.1474 C.3     1  UNL1        0.0101
     31 C          68.4143   93.8310   16.1422 C.3     1  UNL1        0.0851
@<TRIPOS>BOND
     1    30    31    1
     2    31    26    1
     3    26    27    2
     4    26    28   am
     5    28    24    1
     6    24    25    1
     7    24    18    1
     8    18    19   ar
     9    19    20   ar
    10    20    21   ar
    11    21     1    1
    12     1     2   am
    13     2     3    2
    14     2     4   am
    15     4     5    1
    16     5     6    1
    17     6     9    1
    18     9    10   ar
    19    10    11   ar
    20    11    12   ar
    21    12    13   ar
    22    13    14    1
    23    13    15   ar
    24     6     7    1
    25    21    22   ar
    26    22    23   ar
    27    23    18   ar
    28     7     4    1
    29    15     9   ar
    30    28    29    1
    31     1     8    1
    32    14    16    1
    33    14    17    1
@<TRIPOS>MOLECULE
*****
 31 33 0 0 0
SMALL
GASTEIGER

@<TRIPOS>ATOM
      1 N          61.6404   87.7501   10.5819 N.am    1  UNL1       -0.2681
      2 C          60.9372   87.1877    9.3822 C.2     1  UNL1        0.3077
      3 O          60.8836   85.7035    9.1717 O.2     1  UNL1       -0.2522
      4 N          60.2877   88.1095    8.3931 N.am    1  UNL1       -0.2632
      5 C          59.5194   87.9258    7.1179 C.3     1  UNL1        0.1010
      6 C          59.3691   89.4131    6.9943 C.3     1  UNL1        0.0636
      7 C          60.1373   89.5968    8.2693 C.3     1  UNL1        0.1010
      8 H          61.6756   88.7242   10.7201 H       1  UNL1        0.1564
      9 C          58.7195   90.3349    6.0051 C.ar    1  UNL1        0.0012
     10 C          57.2248   90.3722    5.8841 C.ar    1  UNL1        0.0948
     11 N          56.5753   91.2940    4.8949 N.ar    1  UNL1       -0.2414
     12 C          57.4204   92.1785    4.0268 C.ar    1  UNL1        0.1129
     13 C          58.9150   92.1411    4.1479 C.ar    1  UNL1        0.0607
     14 N          59.7601   93.0256    3.2799 N.pl3   1  UNL1       -0.3558
     15 C          59.5646   91.2193    5.1371 C.ar    1  UNL1        0.0130
     16 H          59.3337   93.6306    2.6307 H       1  UNL1        0.1424
     17 H          60.7411   93.0011    3.3593 H       1  UNL1        0.1424
     18 C          63.5890   84.9847   13.5493 C.ar    1  UNL1       -0.0044
     19 C          62.6418   84.4369   12.5234 C.ar    1  UNL1       -0.0014
     20 C          61.9922   85.3586   11.5343 C.ar    1  UNL1        0.0144
     21 C          62.2899   86.8283   11.5710 C.ar    1  UNL1        0.0516
     22 C          63.2372   87.3762   12.5969 C.ar    1  UNL1        0.0144
     23 C          63.8867   86.4544   13.5860 C.ar    1  UNL1       -0.0014
     24 C          64.2386   84.0630   14.5385 C.3     1  UNL1        0.0941
     25 C          65.4407   84.5187   15.3112 C.3     1  UNL1        0.0262
     26 C          63.8905   81.6234   13.7155 C.2     1  UNL1        0.2226
     27 O          64.6476   81.9390   12.4596 O.2     1  UNL1       -0.2751
     28 N          63.6860   82.6854   14.7549 N.am    1  UNL1       -0.3022
     29 H          63.1891   82.4782   15.5792 H       1  UNL1        0.1497
     30 C          61.9260   79.9329   13.5335 C.3     1  UNL1        0.0101
     31 C          63.3379   80.2457   13.9320 C.3     1  UNL1        0.0851
@<TRIPOS>BOND
     1    30    31    1
     2    31    26    1
     3    26    27    2
     4    26    28   am
     5    28    24    1
     6    24    25    1
     7    24    18    1
     8    18    19   ar
     9    19    20   ar
    10    20    21   ar
    11    21     1    1
    12     1     2   am
    13     2     3    2
    14     2     4   am
    15     4     5    1
    16     5     6    1
    17     6     9    1
    18     9    10   ar
    19    10    11   ar
    20    11    12   ar
    21    12    13   ar
    22    13    14    1
    23    13    15   ar
    24     6     7    1
    25    21    22   ar
    26    22    23   ar
    27    23    18   ar
    28     7     4    1
    29    15     9   ar
    30    28    29    1
    31     1     8    1
    32    14    16    1
    33    14    17    1
@<TRIPOS>MOLECULE
*****
 31 33 0 0 0
SMALL
GASTEIGER

@<TRIPOS>ATOM
      1 N          63.1800   89.9577   11.6188 N.am    1  UNL1       -0.2681
      2 C          63.9340   91.2217   11.3296 C.2     1  UNL1        0.3077
      3 O          63.6631   91.9844   10.0666 O.2     1  UNL1       -0.2522
      4 N          64.9589   91.7232   12.3034 N.am    1  UNL1       -0.2632
      5 C          65.8808   92.9052   12.3582 C.3     1  UNL1        0.1010
      6 C          66.4083   92.4323   13.6804 C.3     1  UNL1        0.0636
      7 C          65.4864   91.2504   13.6255 C.3     1  UNL1        0.1010
      8 H          63.3578   89.4571   12.4477 H       1  UNL1        0.1564
      9 C          67.4332   92.9337   14.6541 C.ar    1  UNL1        0.0012
     10 C          67.5237   94.3996   14.9594 C.ar    1  UNL1        0.0948
     11 N          68.5486   94.9011   15.9331 N.ar    1  UNL1       -0.2414
     12 C          69.4830   93.9366   16.6016 C.ar    1  UNL1        0.1129
     13 C          69.3925   92.4708   16.2963 C.ar    1  UNL1        0.0607
     14 N          70.3268   91.5065   16.9648 N.pl3   1  UNL1       -0.3558
     15 C          68.3676   91.9694   15.3226 C.ar    1  UNL1        0.0130
     16 H          70.9995   91.8356   17.6039 H       1  UNL1        0.1424
     17 H          70.2675   90.5444   16.7645 H       1  UNL1        0.1424
     18 C          60.1053   88.4533    8.6976 C.ar    1  UNL1       -0.0044
     19 C          61.3227   87.6294    8.9959 C.ar    1  UNL1       -0.0014
     20 C          62.3476   88.1309    9.9696 C.ar    1  UNL1        0.0144
     21 C          62.1551   89.4562   10.6451 C.ar    1  UNL1        0.0516
     22 C          60.9377   90.2802   10.3468 C.ar    1  UNL1        0.0144
     23 C          59.9128   89.7787    9.3731 C.ar    1  UNL1       -0.0014
     24 C          59.0804   87.9519    7.7239 C.3     1  UNL1        0.0941
     25 C          58.9200   86.4780    7.4964 C.3     1  UNL1        0.0262
     26 C          58.8393   89.9172    6.0418 C.2     1  UNL1        0.2226
     27 O          60.3271   89.9375    5.8522 O.2     1  UNL1       -0.2751
     28 N          58.2160   88.9244    6.9776 N.am    1  UNL1       -0.3022
     29 H          57.2395   88.9111    7.1021 H       1  UNL1        0.1497
     30 C          58.6038   91.9903    4.4936 C.3     1  UNL1        0.0101
     31 C          57.9748   90.8897    5.2955 C.3     1  UNL1        0.0851
@<TRIPOS>BOND
     1    30    31    1
     2    31    26    1
     3    26    27    2
     4    26    28   am
     5    28    24    1
     6    24    25    1
     7    24    18    1
     8    18    19   ar
     9    19    20   ar
    10    20    21   ar
    11    21     1    1
    12     1     2   am
    13     2     3    2
    14     2     4   am
    15     4     5    1
    16     5     6    1
    17     6     9    1
    18     9    10   ar
    19    10    11   ar
    20    11    12   ar
    21    12    13   ar
    22    13    14    1
    23    13    15   ar
    24     6     7    1
    25    21    22   ar
    26    22    23   ar
    27    23    18   ar
    28     7     4    1
    29    15     9   ar
    30    28    29    1
    31     1     8    1
    32    14    16    1
    33    14    17    1
@<TRIPOS>MOLECULE
*****
 31 33 0 0 0
SMALL
GASTEIGER

@<TRIPOS>ATOM
      1 N          63.2870   86.9512   14.4495 N.am    1  UNL1       -0.2681
      2 C          64.3002   85.8452   14.4580 C.2     1  UNL1        0.3077
      3 O          65.6781   86.0945   14.9959 O.2     1  UNL1       -0.2522
      4 N          63.9356   84.4899   13.9286 N.am    1  UNL1       -0.2632
      5 C          64.6539   83.1818   13.7773 C.3     1  UNL1        0.1010
      6 C          63.4199   82.5733   13.1799 C.3     1  UNL1        0.0636
      7 C          62.7016   83.8813   13.3312 C.3     1  UNL1        0.1010
      8 H          62.3827   86.7876   14.0965 H       1  UNL1        0.1564
      9 C          63.0553   81.2180   12.6505 C.ar    1  UNL1        0.0012
     10 C          62.5327   80.1647   13.5819 C.ar    1  UNL1        0.0948
     11 N          62.1681   78.8094   13.0525 N.ar    1  UNL1       -0.2414
     12 C          62.3260   78.5075   11.5917 C.ar    1  UNL1        0.1129
     13 C          62.8486   79.5608   10.6603 C.ar    1  UNL1        0.0607
     14 N          63.0065   79.2588    9.1996 N.pl3   1  UNL1       -0.3558
     15 C          63.2132   80.9161   11.1897 C.ar    1  UNL1        0.0130
     16 H          62.7672   78.3693    8.8521 H       1  UNL1        0.1424
     17 H          63.3495   79.9501    8.5883 H       1  UNL1        0.1424
     18 C          64.3809   91.0171   16.0377 C.ar    1  UNL1       -0.0044
     19 C          63.5155   90.1017   16.8521 C.ar    1  UNL1       -0.0014
     20 C          63.1509   88.7464   16.3227 C.ar    1  UNL1        0.0144
     21 C          63.6516   88.3065   14.9789 C.ar    1  UNL1        0.0516
     22 C          64.5170   89.2219   14.1646 C.ar    1  UNL1        0.0144
     23 C          64.8816   90.5771   14.6940 C.ar    1  UNL1       -0.0014
     24 C          64.7455   92.3723   16.5671 C.3     1  UNL1        0.0941
     25 C          63.6728   93.3011   17.0534 C.3     1  UNL1        0.0262
     26 C          66.8195   93.4138   15.3993 C.2     1  UNL1        0.2226
     27 O          66.0187   93.6023   14.1451 O.2     1  UNL1       -0.2751
     28 N          66.1829   92.7988   16.6103 N.am    1  UNL1       -0.3022
     29 H          66.7086   92.6751   17.4335 H       1  UNL1        0.1497
     30 C          69.2923   92.9289   16.0321 C.3     1  UNL1        0.0101
     31 C          68.2570   93.8403   15.4425 C.3     1  UNL1        0.0851
@<TRIPOS>BOND
     1    30    31    1
     2    31    26    1
     3    26    27    2
     4    26    28   am
     5    28    24    1
     6    24    25    1
     7    24    18    1
     8    18    19   ar
     9    19    20   ar
    10    20    21   ar
    11    21     1    1
    12     1     2   am
    13     2     3    2
    14     2     4   am
    15     4     5    1
    16     5     6    1
    17     6     9    1
    18     9    10   ar
    19    10    11   ar
    20    11    12   ar
    21    12    13   ar
    22    13    14    1
    23    13    15   ar
    24     6     7    1
    25    21    22   ar
    26    22    23   ar
    27    23    18   ar
    28     7     4    1
    29    15     9   ar
    30    28    29    1
    31     1     8    1
    32    14    16    1
    33    14    17    1
@<TRIPOS>MOLECULE
*****
 31 33 0 0 0
SMALL
GASTEIGER

@<TRIPOS>ATOM
      1 N          61.5151   86.3714    9.6750 N.am    1  UNL1       -0.2681
      2 C          60.9964   87.7562    9.9260 C.2     1  UNL1        0.3077
      3 O          61.0813   88.3514   11.3003 O.2     1  UNL1       -0.2522
      4 N          60.3927   88.5460    8.8026 N.am    1  UNL1       -0.2632
      5 C          59.7887   89.9128    8.6718 C.3     1  UNL1        0.1010
      6 C          59.5390   89.6629    7.2140 C.3     1  UNL1        0.0636
      7 C          60.1429   88.2962    7.3448 C.3     1  UNL1        0.1010
      8 H          61.4594   85.9807    8.7731 H       1  UNL1        0.1564
      9 C          58.9354   90.4526    6.0907 C.ar    1  UNL1        0.0012
     10 C          57.4473   90.4723    5.9027 C.ar    1  UNL1        0.0948
     11 N          56.8436   91.2621    4.7794 N.ar    1  UNL1       -0.2414
     12 C          57.7281   92.0322    3.8440 C.ar    1  UNL1        0.1129
     13 C          59.2161   92.0125    4.0320 C.ar    1  UNL1        0.0607
     14 N          60.1004   92.7825    3.0967 N.pl3   1  UNL1       -0.3558
     15 C          59.8197   91.2227    5.1554 C.ar    1  UNL1        0.0130
     16 H          59.7042   93.3009    2.3594 H       1  UNL1        0.1424
     17 H          61.0771   92.7696    3.2201 H       1  UNL1        0.1424
     18 C          63.3261   84.0020   13.0450 C.ar    1  UNL1       -0.0044
     19 C          62.6273   83.2949   11.9218 C.ar    1  UNL1       -0.0014
     20 C          62.0237   84.0846   10.7985 C.ar    1  UNL1        0.0144
     21 C          62.1188   85.5816   10.7984 C.ar    1  UNL1        0.0516
     22 C          62.8175   86.2888   11.9216 C.ar    1  UNL1        0.0144
     23 C          63.4212   85.4990   13.0449 C.ar    1  UNL1       -0.0014
     24 C          63.9297   83.2123   14.1684 C.3     1  UNL1        0.0941
     25 C          64.2711   81.7653   13.9691 C.3     1  UNL1        0.0262
     26 C          63.1119   84.6674   16.1593 C.2     1  UNL1        0.2226
     27 O          61.7695   84.8081   15.5050 O.2     1  UNL1       -0.2751
     28 N          64.1920   83.8695   15.4909 N.am    1  UNL1       -0.3022
     29 H          65.0731   83.7771   15.9203 H       1  UNL1        0.1497
     30 C          62.6854   86.6107   17.8301 C.3     1  UNL1        0.0101
     31 C          63.3743   85.3246   17.4819 C.3     1  UNL1        0.0851
@<TRIPOS>BOND
     1    30    31    1
     2    31    26    1
     3    26    27    2
     4    26    28   am
     5    28    24    1
     6    24    25    1
     7    24    18    1
     8    18    19   ar
     9    19    20   ar
    10    20    21   ar
    11    21     1    1
    12     1     2   am
    13     2     3    2
    14     2     4   am
    15     4     5    1
    16     5     6    1
    17     6     9    1
    18     9    10   ar
    19    10    11   ar
    20    11    12   ar
    21    12    13   ar
    22    13    14    1
    23    13    15   ar
    24     6     7    1
    25    21    22   ar
    26    22    23   ar
    27    23    18   ar
    28     7     4    1
    29    15     9   ar
    30    28    29    1
    31     1     8    1
    32    14    16    1
    33    14    17    1
@<TRIPOS>MOLECULE
*****
 31 33 0 0 0
SMALL
GASTEIGER

@<TRIPOS>ATOM
      1 N          61.6682   86.1427    9.6575 N.am    1  UNL1       -0.2681
      2 C          61.2260   87.5499    9.9298 C.2     1  UNL1        0.3077
      3 O          61.3137   88.1080   11.3195 O.2     1  UNL1       -0.2522
      4 N          60.6962   88.3991    8.8127 N.am    1  UNL1       -0.2632
      5 C          60.1767   89.8020    8.7012 C.3     1  UNL1        0.1010
      6 C          59.9468   89.6001    7.2328 C.3     1  UNL1        0.0636
      7 C          60.4662   88.1974    7.3442 C.3     1  UNL1        0.1010
      8 H          61.6107   85.7765    8.7455 H       1  UNL1        0.1564
      9 C          59.4169   90.4493    6.1156 C.ar    1  UNL1        0.0012
     10 C          60.3663   91.1096    5.1602 C.ar    1  UNL1        0.0948
     11 N          59.8364   91.9588    4.0430 N.ar    1  UNL1       -0.2414
     12 C          58.3571   92.1477    3.8812 C.ar    1  UNL1        0.1129
     13 C          57.4078   91.4874    4.8366 C.ar    1  UNL1        0.0607
     14 N          55.9286   91.6763    4.6748 N.pl3   1  UNL1       -0.3558
     15 C          57.9377   90.6382    5.9538 C.ar    1  UNL1        0.0130
     16 H          55.5808   92.2336    3.9415 H       1  UNL1        0.1424
     17 H          55.3055   91.2429    5.3018 H       1  UNL1        0.1424
     18 C          63.2579   83.5952   13.0090 C.ar    1  UNL1       -0.0044
     19 C          63.7467   83.3808   11.6072 C.ar    1  UNL1       -0.0014
     20 C          63.2168   84.2300   10.4900 C.ar    1  UNL1        0.0144
     21 C          62.1981   85.2935   10.7747 C.ar    1  UNL1        0.0516
     22 C          61.7093   85.5079   12.1764 C.ar    1  UNL1        0.0144
     23 C          62.2392   84.6587   13.2936 C.ar    1  UNL1       -0.0014
     24 C          63.7878   82.7460   14.1262 C.3     1  UNL1        0.0941
     25 C          65.1608   82.9991   14.6743 C.3     1  UNL1        0.0262
     26 C          61.9630   80.9221   13.8200 C.2     1  UNL1        0.2226
     27 O          61.8246   81.3030   12.3758 O.2     1  UNL1       -0.2751
     28 N          62.9446   81.6436   14.6952 N.am    1  UNL1       -0.3022
     29 H          63.0354   81.3936   15.6431 H       1  UNL1        0.1497
     30 C          59.6238   79.9213   14.3462 C.3     1  UNL1        0.0101
     31 C          61.1198   79.8197   14.3891 C.3     1  UNL1        0.0851
@<TRIPOS>BOND
     1    30    31    1
     2    31    26    1
     3    26    27    2
     4    26    28   am
     5    28    24    1
     6    24    25    1
     7    24    18    1
     8    18    19   ar
     9    19    20   ar
    10    20    21   ar
    11    21     1    1
    12     1     2   am
    13     2     3    2
    14     2     4   am
    15     4     5    1
    16     5     6    1
    17     6     9    1
    18     9    10   ar
    19    10    11   ar
    20    11    12   ar
    21    12    13   ar
    22    13    14    1
    23    13    15   ar
    24     6     7    1
    25    21    22   ar
    26    22    23   ar
    27    23    18   ar
    28     7     4    1
    29    15     9   ar
    30    28    29    1
    31     1     8    1
    32    14    16    1
    33    14    17    1
@<TRIPOS>MOLECULE
*****
 31 33 0 0 0
SMALL
GASTEIGER

@<TRIPOS>ATOM
      1 N          63.8688   88.5886   12.3356 N.am    1  UNL1       -0.2681
      2 C          64.4907   89.6442   13.2010 C.2     1  UNL1        0.3077
      3 O          64.7466   89.3686   14.6532 O.2     1  UNL1       -0.2522
      4 N          64.8566   90.9754   12.6145 N.am    1  UNL1       -0.2632
      5 C          65.4738   92.2351   13.1459 C.3     1  UNL1        0.1010
      6 C          65.3741   92.8579   11.7849 C.3     1  UNL1        0.0636
      7 C          64.7571   91.5983   11.2536 C.3     1  UNL1        0.1010
      8 H          63.7009   88.7695   11.3825 H       1  UNL1        0.1564
      9 C          65.7401   94.1891   11.1984 C.ar    1  UNL1        0.0012
     10 C          66.0890   95.3357   12.1004 C.ar    1  UNL1        0.0948
     11 N          66.4550   96.6669   11.5138 N.ar    1  UNL1       -0.2414
     12 C          66.4720   96.8514   10.0252 C.ar    1  UNL1        0.1129
     13 C          66.1230   95.7048    9.1233 C.ar    1  UNL1        0.0607
     14 N          66.1400   95.8894    7.6349 N.pl3   1  UNL1       -0.3558
     15 C          65.7571   94.3736    9.7099 C.ar    1  UNL1        0.0130
     16 H          66.3802   96.7631    7.2499 H       1  UNL1        0.1424
     17 H          65.9110   95.1368    7.0429 H       1  UNL1        0.1424
     18 C          62.7710   84.5951   14.0953 C.ar    1  UNL1       -0.0044
     19 C          63.5898   85.5665   14.8927 C.ar    1  UNL1       -0.0014
     20 C          63.9558   86.8977   14.3061 C.ar    1  UNL1        0.0144
     21 C          63.5029   87.2575   12.9221 C.ar    1  UNL1        0.0516
     22 C          62.6841   86.2861   12.1247 C.ar    1  UNL1        0.0144
     23 C          62.3181   84.9549   12.7113 C.ar    1  UNL1       -0.0014
     24 C          62.4051   83.2640   14.6818 C.3     1  UNL1        0.0941
     25 C          62.4323   83.0664   16.1685 C.3     1  UNL1        0.0262
     26 C          63.0316   81.5003   12.8799 C.2     1  UNL1        0.2226
     27 O          64.4445   82.0040   12.8781 O.2     1  UNL1       -0.2751
     28 N          62.0119   82.1303   13.7818 N.am    1  UNL1       -0.3022
     29 H          61.0846   81.7997   13.7829 H       1  UNL1        0.1497
     30 C          63.1002   80.3471   10.5528 C.3     1  UNL1        0.0101
     31 C          62.6384   80.3666   11.9798 C.3     1  UNL1        0.0851
@<TRIPOS>BOND
     1    30    31    1
     2    31    26    1
     3    26    27    2
     4    26    28   am
     5    28    24    1
     6    24    25    1
     7    24    18    1
     8    18    19   ar
     9    19    20   ar
    10    20    21   ar
    11    21     1    1
    12     1     2   am
    13     2     3    2
    14     2     4   am
    15     4     5    1
    16     5     6    1
    17     6     9    1
    18     9    10   ar
    19    10    11   ar
    20    11    12   ar
    21    12    13   ar
    22    13    14    1
    23    13    15   ar
    24     6     7    1
    25    21    22   ar
    26    22    23   ar
    27    23    18   ar
    28     7     4    1
    29    15     9   ar
    30    28    29    1
    31     1     8    1
    32    14    16    1
    33    14    17    1
