@<TRIPOS>MOLECULE
*****
 32 35 0 0 0
SMALL
GASTEIGER

@<TRIPOS>ATOM
      1 C          59.3250   88.8329    7.3626 C.ar    1  UNL1        0.1388
      2 C          59.2227   87.3629    7.6433 C.ar    1  UNL1        0.0384
      3 C          60.0834   86.7399    8.7021 C.ar    1  UNL1        0.0221
      4 C          61.0463   87.5868    9.4802 C.ar    1  UNL1        0.0825
      5 C          61.1486   89.0567    9.1995 C.ar    1  UNL1        0.0194
      6 C          60.2879   89.6797    8.1407 C.ar    1  UNL1        0.0382
      7 C          62.1815   89.6340   10.1215 C.ar    1  UNL1        0.0144
      8 C          62.7176   88.5207   10.9719 C.ar    1  UNL1        0.0970
      9 N          62.0160   87.2555   10.5756 N.ar    1  UNL1       -0.2080
     10 S          62.2441   85.8975   11.1703 S.O2    1  UNL1        0.0860
     11 O          62.8442   85.4319    9.8768 O.2     1  UNL1       -0.1476
     12 O          61.6440   86.3631   12.4638 O.2     1  UNL1       -0.1476
     13 C          62.4722   84.5394   11.7650 C.ar    1  UNL1        0.1277
     14 C          62.8343   83.3841   10.8797 C.ar    1  UNL1        0.0201
     15 C          63.0624   82.0260   11.4744 C.ar    1  UNL1       -0.0029
     16 C          62.9282   81.8233   12.9546 C.ar    1  UNL1       -0.0224
     17 C          62.5660   82.9787   13.8400 C.ar    1  UNL1       -0.0029
     18 C          62.3380   84.3367   13.2452 C.ar    1  UNL1        0.0201
     19 C          63.1563   80.4653   13.5494 C.3     1  UNL1        0.0224
     20 C          62.1699   79.3627   13.3015 C.3     1  UNL1        0.0047
     21 C          64.3706   80.2099   14.3921 C.3     1  UNL1        0.0047
     22 C          58.9536   90.6572    5.5504 C.3     1  UNL1        0.2525
     23 O          58.4643   89.4559    6.3038 O.3     1  UNL1       -0.4714
     24 C          62.6041   91.0719   10.1822 C.3     1  UNL1        0.1008
     25 N          63.6210   91.5127   11.1930 N.3     1  UNL1       -0.2677
     26 C          64.7306   92.3742   10.6668 C.3     1  UNL1        0.0739
     27 C          65.8870   92.9695   11.4140 C.3     1  UNL1        0.0347
     28 C          66.2195   92.8503   12.8719 C.3     1  UNL1        0.0736
     29 N          65.4777   92.1064   13.9426 N.3     1  UNL1       -0.2703
     30 C          66.0721   92.1808   15.3178 C.3     1  UNL1        0.0897
     31 C          64.2202   91.2980   13.8199 C.3     1  UNL1        0.0897
     32 C          63.3939   91.0338   12.5962 C.3     1  UNL1        0.0899
@<TRIPOS>BOND
     1    22    23    1
     2    23     1    1
     3     1     2   ar
     4     2     3   ar
     5     3     4   ar
     6     4     5   ar
     7     5     6   ar
     8     5     7   ar
     9     7    24    1
    10    24    25    1
    11    25    26    1
    12    26    27    1
    13    27    28    1
    14    28    29    1
    15    29    30    1
    16    29    31    1
    17    31    32    1
    18     7     8   ar
    19     8     9   ar
    20     9    10    1
    21    10    11    2
    22    10    12    2
    23    10    13    1
    24    13    14   ar
    25    14    15   ar
    26    15    16   ar
    27    16    19    1
    28    19    20    1
    29    19    21    1
    30    16    17   ar
    31    17    18   ar
    32     6     1   ar
    33    32    25    1
    34    18    13   ar
    35     9     4   ar
@<TRIPOS>MOLECULE
*****
 32 35 0 0 0
SMALL
GASTEIGER

@<TRIPOS>ATOM
      1 C          61.7240   85.1117    7.5217 C.ar    1  UNL1        0.1388
      2 C          62.8106   85.2689    8.5437 C.ar    1  UNL1        0.0384
      3 C          62.8802   86.5126    9.3793 C.ar    1  UNL1        0.0221
      4 C          61.8632   87.5993    9.1929 C.ar    1  UNL1        0.0825
      5 C          60.7766   87.4421    8.1708 C.ar    1  UNL1        0.0194
      6 C          60.7070   86.1984    7.3353 C.ar    1  UNL1        0.0382
      7 C          59.9204   88.6732    8.2114 C.ar    1  UNL1        0.0144
      8 C          60.4780   89.5912    9.2585 C.ar    1  UNL1        0.0970
      9 N          61.6787   88.9274    9.8651 N.ar    1  UNL1       -0.2080
     10 S          62.5431   89.4926   10.9529 S.O2    1  UNL1        0.0860
     11 O          63.0511   90.5388   10.0056 O.2     1  UNL1       -0.1476
     12 O          62.0350   88.4464   11.9002 O.2     1  UNL1       -0.1476
     13 C          63.4075   90.0578   12.0408 C.ar    1  UNL1        0.1277
     14 C          64.0743   91.3883   11.8540 C.ar    1  UNL1        0.0201
     15 C          64.9387   91.9534   12.9419 C.ar    1  UNL1       -0.0029
     16 C          65.1362   91.1879   14.2166 C.ar    1  UNL1       -0.0224
     17 C          64.4694   89.8574   14.4034 C.ar    1  UNL1       -0.0029
     18 C          63.6050   89.2923   13.3156 C.ar    1  UNL1        0.0201
     19 C          66.0006   91.7530   15.3045 C.3     1  UNL1        0.0224
     20 C          65.3717   92.3440   16.5314 C.3     1  UNL1        0.0047
     21 C          67.4939   91.7272   15.1655 C.3     1  UNL1        0.0047
     22 C          61.6756   83.9677    5.1896 C.3     1  UNL1        0.2525
     23 O          61.6545   83.8680    6.6861 O.3     1  UNL1       -0.4714
     24 C          58.7180   88.9395    7.3552 C.3     1  UNL1        0.1008
     25 N          58.7879   89.9639    6.2618 N.3     1  UNL1       -0.2677
     26 C          57.4715   90.5209    5.8066 C.3     1  UNL1        0.0739
     27 C          57.2071   91.5475    4.7454 C.3     1  UNL1        0.0347
     28 C          58.1937   92.2705    3.8770 C.3     1  UNL1        0.0736
     29 N          59.6883   92.1456    3.8556 N.3     1  UNL1       -0.2703
     30 C          60.3997   93.0144    2.8611 C.3     1  UNL1        0.0897
     31 C          60.5656   91.2668    4.6971 C.3     1  UNL1        0.0897
     32 C          60.1648   90.2959    5.7680 C.3     1  UNL1        0.0899
@<TRIPOS>BOND
     1    22    23    1
     2    23     1    1
     3     1     2   ar
     4     2     3   ar
     5     3     4   ar
     6     4     5   ar
     7     5     6   ar
     8     5     7   ar
     9     7    24    1
    10    24    25    1
    11    25    26    1
    12    26    27    1
    13    27    28    1
    14    28    29    1
    15    29    30    1
    16    29    31    1
    17    31    32    1
    18     7     8   ar
    19     8     9   ar
    20     9    10    1
    21    10    11    2
    22    10    12    2
    23    10    13    1
    24    13    14   ar
    25    14    15   ar
    26    15    16   ar
    27    16    19    1
    28    19    20    1
    29    19    21    1
    30    16    17   ar
    31    17    18   ar
    32     6     1   ar
    33    32    25    1
    34    18    13   ar
    35     9     4   ar
@<TRIPOS>MOLECULE
*****
 32 35 0 0 0
SMALL
GASTEIGER

@<TRIPOS>ATOM
      1 C          59.9583   89.5555    8.1667 C.ar    1  UNL1        0.1388
      2 C          59.7755   88.0707    8.2754 C.ar    1  UNL1        0.0384
      3 C          60.5384   87.2948    9.3078 C.ar    1  UNL1        0.0221
      4 C          61.4841   88.0036   10.2315 C.ar    1  UNL1        0.0825
      5 C          61.6669   89.4884   10.1227 C.ar    1  UNL1        0.0194
      6 C          60.9040   90.2644    9.0903 C.ar    1  UNL1        0.0382
      7 C          62.6616   89.9105   11.1632 C.ar    1  UNL1        0.0144
      8 C          63.0935   88.6865   11.9149 C.ar    1  UNL1        0.0970
      9 N          62.3658   87.5080   11.3391 N.ar    1  UNL1       -0.2080
     10 S          62.4967   86.0838   11.7915 S.O2    1  UNL1        0.0860
     11 O          61.6408   85.6401   10.6424 O.2     1  UNL1       -0.1476
     12 O          63.3526   86.5276   12.9407 O.2     1  UNL1       -0.1476
     13 C          62.6277   84.6597   12.2440 C.ar    1  UNL1        0.1277
     14 C          62.5742   84.3293   13.7061 C.ar    1  UNL1        0.0201
     15 C          62.7052   82.9051   14.1586 C.ar    1  UNL1       -0.0029
     16 C          62.8897   81.8114   13.1488 C.ar    1  UNL1       -0.0224
     17 C          62.9431   82.1418   11.6866 C.ar    1  UNL1       -0.0029
     18 C          62.8121   83.5659   11.2342 C.ar    1  UNL1        0.0201
     19 C          63.0207   80.3873   13.6012 C.3     1  UNL1        0.0224
     20 C          62.0268   79.3608   13.1445 C.3     1  UNL1        0.0047
     21 C          64.1455   79.9896   14.5104 C.3     1  UNL1        0.0047
     22 C          59.1595   89.8546    5.7126 C.3     1  UNL1        0.2525
     23 O          59.1954   90.3315    7.1342 O.3     1  UNL1       -0.4714
     24 C          63.1403   91.3107   11.4087 C.3     1  UNL1        0.1008
     25 N          64.1874   91.5735   12.4500 N.3     1  UNL1       -0.2677
     26 C          63.8569   91.1083   13.8373 C.3     1  UNL1        0.0739
     27 C          64.6840   91.2215   15.0835 C.3     1  UNL1        0.0347
     28 C          66.0459   91.8279   15.2503 C.3     1  UNL1        0.0736
     29 N          66.9169   92.4708   14.2121 N.3     1  UNL1       -0.2703
     30 C          68.2383   92.9865   14.6999 C.3     1  UNL1        0.0897
     31 C          66.6413   92.6661   12.7506 C.3     1  UNL1        0.0897
     32 C          65.4266   92.2668   11.9665 C.3     1  UNL1        0.0899
@<TRIPOS>BOND
     1    22    23    1
     2    23     1    1
     3     1     2   ar
     4     2     3   ar
     5     3     4   ar
     6     4     5   ar
     7     5     6   ar
     8     5     7   ar
     9     7    24    1
    10    24    25    1
    11    25    26    1
    12    26    27    1
    13    27    28    1
    14    28    29    1
    15    29    30    1
    16    29    31    1
    17    31    32    1
    18     7     8   ar
    19     8     9   ar
    20     9    10    1
    21    10    11    2
    22    10    12    2
    23    10    13    1
    24    13    14   ar
    25    14    15   ar
    26    15    16   ar
    27    16    19    1
    28    19    20    1
    29    19    21    1
    30    16    17   ar
    31    17    18   ar
    32     6     1   ar
    33    32    25    1
    34    18    13   ar
    35     9     4   ar
@<TRIPOS>MOLECULE
*****
 32 35 0 0 0
SMALL
GASTEIGER

@<TRIPOS>ATOM
      1 C          59.0033   90.9082   11.5567 C.ar    1  UNL1        0.1388
      2 C          58.6302   89.4728   11.7812 C.ar    1  UNL1        0.0384
      3 C          59.6892   88.4106   11.7610 C.ar    1  UNL1        0.0221
      4 C          61.1212   88.7839   11.5164 C.ar    1  UNL1        0.0825
      5 C          61.4943   90.2193   11.2920 C.ar    1  UNL1        0.0194
      6 C          60.4353   91.2814   11.3121 C.ar    1  UNL1        0.0382
      7 C          62.9775   90.2847   11.0772 C.ar    1  UNL1        0.0144
      8 C          63.5210   88.8896   11.1690 C.ar    1  UNL1        0.0970
      9 N          62.3738   87.9621   11.4404 N.ar    1  UNL1       -0.2080
     10 S          62.4634   86.4740   11.6066 S.O2    1  UNL1        0.0860
     11 O          63.1561   86.6629   12.9236 O.2     1  UNL1       -0.1476
     12 O          61.7706   86.2852   10.2896 O.2     1  UNL1       -0.1476
     13 C          62.5529   84.9859   11.7728 C.ar    1  UNL1        0.1277
     14 C          62.8688   84.1170   10.5917 C.ar    1  UNL1        0.0201
     15 C          62.9583   82.6289   10.7578 C.ar    1  UNL1       -0.0029
     16 C          62.7320   82.0098   12.1052 C.ar    1  UNL1       -0.0224
     17 C          62.4161   82.8788   13.2864 C.ar    1  UNL1       -0.0029
     18 C          62.3266   84.3668   13.1202 C.ar    1  UNL1        0.0201
     19 C          62.8216   80.5217   12.2715 C.3     1  UNL1        0.0224
     20 C          62.9041   79.6358   11.0639 C.3     1  UNL1        0.0047
     21 C          62.8286   79.9196   13.6453 C.3     1  UNL1        0.0047
     22 C          58.2948   93.3713   11.9822 C.3     1  UNL1        0.2525
     23 O          57.9443   91.9703   11.5769 O.3     1  UNL1       -0.4714
     24 C          63.7767   91.5269   10.8165 C.3     1  UNL1        0.1008
     25 N          64.6493   92.0974   11.8950 N.3     1  UNL1       -0.2677
     26 C          65.4155   93.3333   11.5265 C.3     1  UNL1        0.0739
     27 C          66.3619   94.1336   12.3714 C.3     1  UNL1        0.0347
     28 C          66.7759   93.8957   13.7934 C.3     1  UNL1        0.0736
     29 N          66.3457   92.7988   14.7217 N.3     1  UNL1       -0.2703
     30 C          66.9453   92.8369   16.0961 C.3     1  UNL1        0.0897
     31 C          65.3953   91.6688   14.4573 C.3     1  UNL1        0.0897
     32 C          64.6404   91.3567   13.1993 C.3     1  UNL1        0.0899
@<TRIPOS>BOND
     1    22    23    1
     2    23     1    1
     3     1     2   ar
     4     2     3   ar
     5     3     4   ar
     6     4     5   ar
     7     5     6   ar
     8     5     7   ar
     9     7    24    1
    10    24    25    1
    11    25    26    1
    12    26    27    1
    13    27    28    1
    14    28    29    1
    15    29    30    1
    16    29    31    1
    17    31    32    1
    18     7     8   ar
    19     8     9   ar
    20     9    10    1
    21    10    11    2
    22    10    12    2
    23    10    13    1
    24    13    14   ar
    25    14    15   ar
    26    15    16   ar
    27    16    19    1
    28    19    20    1
    29    19    21    1
    30    16    17   ar
    31    17    18   ar
    32     6     1   ar
    33    32    25    1
    34    18    13   ar
    35     9     4   ar
@<TRIPOS>MOLECULE
*****
 32 35 0 0 0
SMALL
GASTEIGER

@<TRIPOS>ATOM
      1 C          64.9015   91.5710   15.1335 C.ar    1  UNL1        0.1388
      2 C          64.7720   90.1980   15.7235 C.ar    1  UNL1        0.0384
      3 C          64.2766   89.0621   14.8783 C.ar    1  UNL1        0.0221
      4 C          63.9106   89.2993   13.4431 C.ar    1  UNL1        0.0825
      5 C          64.0401   90.6722   12.8531 C.ar    1  UNL1        0.0194
      6 C          64.5355   91.8081   13.6983 C.ar    1  UNL1        0.0382
      7 C          63.6071   90.6031   11.4186 C.ar    1  UNL1        0.0144
      8 C          63.2100   89.1873   11.1220 C.ar    1  UNL1        0.0970
      9 N          63.3976   88.3815   12.3733 N.ar    1  UNL1       -0.2080
     10 S          63.1208   86.9154   12.5275 S.O2    1  UNL1        0.0860
     11 O          62.3546   86.9244   11.2380 O.2     1  UNL1       -0.1476
     12 O          63.8870   86.9065   13.8171 O.2     1  UNL1       -0.1476
     13 C          62.8440   85.4492   12.6819 C.ar    1  UNL1        0.1277
     14 C          62.7065   84.5800   11.4673 C.ar    1  UNL1        0.0201
     15 C          62.4297   83.1138   11.6217 C.ar    1  UNL1       -0.0029
     16 C          62.2904   82.5170   12.9907 C.ar    1  UNL1       -0.0224
     17 C          62.4279   83.3863   14.2054 C.ar    1  UNL1       -0.0029
     18 C          62.7047   84.8524   14.0510 C.ar    1  UNL1        0.0201
     19 C          62.0136   81.0509   13.1452 C.3     1  UNL1        0.0224
     20 C          62.7776   80.0530   12.3262 C.3     1  UNL1        0.0047
     21 C          60.9728   80.5826   14.1185 C.3     1  UNL1        0.0047
     22 C          66.8705   92.9476   16.1224 C.3     1  UNL1        0.2525
     23 O          65.3970   92.7068   15.9787 O.3     1  UNL1       -0.4714
     24 C          63.5766   91.7486   10.4506 C.3     1  UNL1        0.1008
     25 N          64.7684   92.6496   10.3171 N.3     1  UNL1       -0.2677
     26 C          66.0993   91.9616   10.2436 C.3     1  UNL1        0.0739
     27 C          67.4622   92.5736   10.1095 C.3     1  UNL1        0.0347
     28 C          67.8308   94.0247   10.0159 C.3     1  UNL1        0.0736
     29 N          66.9275   95.2221   10.0332 N.3     1  UNL1       -0.2703
     30 C          67.6094   96.5533    9.9204 C.3     1  UNL1        0.0897
     31 C          65.4325   95.2642   10.1484 C.3     1  UNL1        0.0897
     32 C          64.4716   94.1193   10.2748 C.3     1  UNL1        0.0899
@<TRIPOS>BOND
     1    22    23    1
     2    23     1    1
     3     1     2   ar
     4     2     3   ar
     5     3     4   ar
     6     4     5   ar
     7     5     6   ar
     8     5     7   ar
     9     7    24    1
    10    24    25    1
    11    25    26    1
    12    26    27    1
    13    27    28    1
    14    28    29    1
    15    29    30    1
    16    29    31    1
    17    31    32    1
    18     7     8   ar
    19     8     9   ar
    20     9    10    1
    21    10    11    2
    22    10    12    2
    23    10    13    1
    24    13    14   ar
    25    14    15   ar
    26    15    16   ar
    27    16    19    1
    28    19    20    1
    29    19    21    1
    30    16    17   ar
    31    17    18   ar
    32     6     1   ar
    33    32    25    1
    34    18    13   ar
    35     9     4   ar
