@<TRIPOS>MOLECULE
*****
 33 37 0 0 0
SMALL
GASTEIGER

@<TRIPOS>ATOM
      1 C          62.7293   84.2121   12.8362 C.2     1  UNL1       -0.0138
      2 C          62.1750   84.9466   11.6516 C.2     1  UNL1        0.0039
      3 C          62.3806   86.4269   11.5236 C.2     1  UNL1        0.1174
      4 C          63.1404   87.1727   12.5802 C.2     1  UNL1        0.2360
      5 N          63.4992   88.6221   12.7241 N.2     1  UNL1       -0.0297
      6 C          64.2753   88.7832   13.9975 C.2     1  UNL1        0.3923
      7 N          64.3961   87.4336   14.6407 N.2     1  UNL1       -0.0336
      8 C          63.6947   86.4382   13.7648 C.2     1  UNL1        0.2178
      9 C          63.4891   84.9579   13.8928 C.3     1  UNL1        0.1040
     10 C          64.8327   90.0685   14.5337 C.2     1  UNL1        0.1883
     11 N          64.0545   91.1429   15.2339 N.2     1  UNL1       -0.0797
     12 O          65.0070   92.2434   15.5967 O.2     1  UNL1       -0.3845
     13 C          66.3739   91.8492   15.1207 C.3     1  UNL1        0.1669
     14 C          67.6749   91.3228   14.5914 C.3     1  UNL1        0.0431
     15 C          68.9291   92.1309   14.7454 C.3     1  UNL1        0.0037
     16 C          68.8824   93.4654   15.4287 C.3     1  UNL1        0.0002
     17 C          67.5814   93.9918   15.9581 C.3     1  UNL1        0.0037
     18 C          66.3272   93.1837   15.8041 C.3     1  UNL1        0.0431
     19 C          66.2661   90.5050   14.4638 C.3     1  UNL1        0.0999
     20 C          63.1624   81.7979   11.9794 C.ar    1  UNL1        0.0711
     21 C          62.9569   80.3176   12.1073 C.ar    1  UNL1        0.0038
     22 C          62.1126   79.7711   13.2202 C.ar    1  UNL1       -0.0001
     23 C          61.4738   80.7050   14.2050 C.ar    1  UNL1       -0.0000
     24 C          61.6794   82.1853   14.0770 C.ar    1  UNL1       -0.0004
     25 C          62.5237   82.7317   12.9642 C.ar    1  UNL1        0.0004
     26 F          64.8511   82.8909    9.7535 F       1  UNL1       -0.1659
     27 C          64.0068   82.3444   10.8664 C.3     1  UNL1        0.4186
     28 F          65.0878   82.6791   11.8510 F       1  UNL1       -0.1659
     29 F          62.9258   82.0096    9.8819 F       1  UNL1       -0.1659
     30 C          61.8263   87.1614   10.3391 C.3     1  UNL1        0.4221
     31 F          61.2720   87.8960    9.1545 F       1  UNL1       -0.1657
     32 F          60.9141   87.9342   11.2451 F       1  UNL1       -0.1657
     33 F          62.7384   86.3887    9.4331 F       1  UNL1       -0.1657
@<TRIPOS>BOND
     1    26    27    1
     2    27    28    1
     3    27    29    1
     4    27    20    1
     5    20    21   ar
     6    21    22   ar
     7    22    23   ar
     8    23    24   ar
     9    24    25   ar
    10    25     1    1
    11     1     2    2
    12     2     3    1
    13     3    30    1
    14    30    31    1
    15    30    32    1
    16    30    33    1
    17     3     4    2
    18     4     5    1
    19     5     6    2
    20     6    10    1
    21    10    11    2
    22    11    12    1
    23    12    13    1
    24    13    14    1
    25    14    15    1
    26    15    16    1
    27    16    17    1
    28    17    18    1
    29    13    19    1
    30     6     7    1
    31     7     8    2
    32     8     9    1
    33    25    20   ar
    34     9     1    1
    35     8     4    1
    36    19    10    1
    37    18    13    1
@<TRIPOS>MOLECULE
*****
 33 37 0 0 0
SMALL
GASTEIGER

@<TRIPOS>ATOM
      1 C          66.1078   93.5921   11.8287 C.2     1  UNL1       -0.0138
      2 C          66.9528   93.7705   13.0551 C.2     1  UNL1        0.0039
      3 C          66.8754   92.7712   14.1712 C.2     1  UNL1        0.1174
      4 C          65.9530   91.5935   14.0608 C.2     1  UNL1        0.2360
      5 N          65.6650   90.4533   14.9920 N.2     1  UNL1       -0.0297
      6 C          64.6421   89.5703   14.3410 C.2     1  UNL1        0.3923
      7 N          64.2978   90.1647   13.0076 N.2     1  UNL1       -0.0336
      8 C          65.1079   91.4151   12.8344 C.2     1  UNL1        0.2178
      9 C          65.1854   92.4144   11.7184 C.3     1  UNL1        0.1040
     10 C          64.0648   88.3135   14.9216 C.2     1  UNL1        0.1883
     11 N          63.1937   88.2239   16.1395 N.2     1  UNL1       -0.0797
     12 O          62.8478   86.7806   16.3569 O.2     1  UNL1       -0.3845
     13 C          63.5051   85.9781   15.2733 C.3     1  UNL1        0.1669
     14 C          64.2191   85.3114   14.1350 C.3     1  UNL1        0.0431
     15 C          64.1384   83.8230   13.9679 C.3     1  UNL1        0.0037
     16 C          63.3437   83.0012   14.9390 C.3     1  UNL1        0.0002
     17 C          62.6297   83.6678   16.0773 C.3     1  UNL1        0.0037
     18 C          62.7104   85.1563   16.2444 C.3     1  UNL1        0.0431
     19 C          64.2573   86.9254   14.3863 C.3     1  UNL1        0.0999
     20 C          67.0657   94.3255    9.5277 C.ar    1  UNL1        0.0711
     21 C          67.1431   95.3248    8.4117 C.ar    1  UNL1        0.0038
     22 C          66.3401   96.5898    8.4807 C.ar    1  UNL1       -0.0001
     23 C          65.4597   96.8556    9.6657 C.ar    1  UNL1       -0.0000
     24 C          65.3822   95.8563   10.7817 C.ar    1  UNL1       -0.0004
     25 C          66.1852   94.5913   10.7127 C.ar    1  UNL1        0.0004
     26 F          68.6718   91.7953    9.3898 F       1  UNL1       -0.1659
     27 C          67.8687   93.0604    9.4588 C.3     1  UNL1        0.4186
     28 F          66.6052   92.2667    9.3059 F       1  UNL1       -0.1659
     29 F          69.1323   93.8542    9.6116 F       1  UNL1       -0.1659
     30 C          67.7204   92.9496   15.3976 C.3     1  UNL1        0.4221
     31 F          68.5655   93.1280   16.6240 F       1  UNL1       -0.1657
     32 F          66.4815   93.1064   16.2284 F       1  UNL1       -0.1657
     33 F          68.9594   92.7928   14.5667 F       1  UNL1       -0.1657
@<TRIPOS>BOND
     1    26    27    1
     2    27    28    1
     3    27    29    1
     4    27    20    1
     5    20    21   ar
     6    21    22   ar
     7    22    23   ar
     8    23    24   ar
     9    24    25   ar
    10    25     1    1
    11     1     2    2
    12     2     3    1
    13     3    30    1
    14    30    31    1
    15    30    32    1
    16    30    33    1
    17     3     4    2
    18     4     5    1
    19     5     6    2
    20     6    10    1
    21    10    11    2
    22    11    12    1
    23    12    13    1
    24    13    14    1
    25    14    15    1
    26    15    16    1
    27    16    17    1
    28    17    18    1
    29    13    19    1
    30     6     7    1
    31     7     8    2
    32     8     9    1
    33    25    20   ar
    34     9     1    1
    35     8     4    1
    36    19    10    1
    37    18    13    1
@<TRIPOS>MOLECULE
*****
 33 37 0 0 0
SMALL
GASTEIGER

@<TRIPOS>ATOM
      1 C          62.8429   83.9250   11.8977 C.2     1  UNL1       -0.0138
      2 C          62.0890   84.7599   10.9055 C.2     1  UNL1        0.0039
      3 C          62.1097   86.2558   11.0147 C.2     1  UNL1        0.1174
      4 C          62.8842   86.9168   12.1161 C.2     1  UNL1        0.2360
      5 N          63.0879   88.3591   12.4742 N.2     1  UNL1       -0.0297
      6 C          63.9677   88.4155   13.6878 C.2     1  UNL1        0.3923
      7 N          64.3078   87.0082   14.0797 N.2     1  UNL1       -0.0336
      8 C          63.6382   86.0819   13.1083 C.2     1  UNL1        0.2178
      9 C          63.6175   84.5860   12.9991 C.3     1  UNL1        0.1040
     10 C          64.4268   89.6608   14.3867 C.2     1  UNL1        0.1883
     11 N          63.6115   90.4934   15.3312 N.2     1  UNL1       -0.0797
     12 O          64.4627   91.6393   15.7921 O.2     1  UNL1       -0.3845
     13 C          65.8042   91.5149   15.1325 C.3     1  UNL1        0.1669
     14 C          67.0902   91.2611   14.4035 C.3     1  UNL1        0.0431
     15 C          68.2501   92.1954   14.5812 C.3     1  UNL1        0.0037
     16 C          68.1239   93.3836   15.4880 C.3     1  UNL1        0.0002
     17 C          66.8379   93.6374   16.2171 C.3     1  UNL1        0.0037
     18 C          65.6780   92.7031   16.0393 C.3     1  UNL1        0.0431
     19 C          65.7820   90.2922   14.2639 C.3     1  UNL1        0.0999
     20 C          62.6361   81.5899   13.0178 C.ar    1  UNL1        0.0711
     21 C          62.6155   80.0940   12.9086 C.ar    1  UNL1        0.0038
     22 C          62.7810   79.4374   11.5702 C.ar    1  UNL1       -0.0001
     23 C          62.9672   80.2766   10.3410 C.ar    1  UNL1       -0.0000
     24 C          62.9878   81.7725   10.4502 C.ar    1  UNL1       -0.0004
     25 C          62.8223   82.4291   11.7886 C.ar    1  UNL1        0.0004
     26 F          62.3051   82.9032   15.6947 F       1  UNL1       -0.1659
     27 C          62.4706   82.2465   14.3563 C.3     1  UNL1        0.4186
     28 F          60.9807   82.2219   14.1841 F       1  UNL1       -0.1659
     29 F          63.9604   82.2712   14.5284 F       1  UNL1       -0.1659
     30 C          61.3557   87.0907   10.0225 C.3     1  UNL1        0.4221
     31 F          60.6018   87.9256    9.0303 F       1  UNL1       -0.1657
     32 F          60.3021   87.3653   11.0542 F       1  UNL1       -0.1657
     33 F          62.4094   86.8160    8.9908 F       1  UNL1       -0.1657
@<TRIPOS>BOND
     1    26    27    1
     2    27    28    1
     3    27    29    1
     4    27    20    1
     5    20    21   ar
     6    21    22   ar
     7    22    23   ar
     8    23    24   ar
     9    24    25   ar
    10    25     1    1
    11     1     2    2
    12     2     3    1
    13     3    30    1
    14    30    31    1
    15    30    32    1
    16    30    33    1
    17     3     4    2
    18     4     5    1
    19     5     6    2
    20     6    10    1
    21    10    11    2
    22    11    12    1
    23    12    13    1
    24    13    14    1
    25    14    15    1
    26    15    16    1
    27    16    17    1
    28    17    18    1
    29    13    19    1
    30     6     7    1
    31     7     8    2
    32     8     9    1
    33    25    20   ar
    34     9     1    1
    35     8     4    1
    36    19    10    1
    37    18    13    1
@<TRIPOS>MOLECULE
*****
 33 37 0 0 0
SMALL
GASTEIGER

@<TRIPOS>ATOM
      1 C          62.5515   84.3329   12.6068 C.2     1  UNL1       -0.0138
      2 C          61.8076   84.9141   11.4411 C.2     1  UNL1        0.0039
      3 C          61.9315   86.3753   11.1255 C.2     1  UNL1        0.1174
      4 C          62.7993   87.2553   11.9754 C.2     1  UNL1        0.2360
      5 N          63.1140   88.7204   11.9086 N.2     1  UNL1       -0.0297
      6 C          64.0524   89.0446   13.0330 C.2     1  UNL1        0.3923
      7 N          64.3177   87.7800   13.7947 N.2     1  UNL1       -0.0336
      8 C          63.5433   86.6741   13.1411 C.2     1  UNL1        0.2178
      9 C          63.4194   85.2129   13.4567 C.3     1  UNL1        0.1040
     10 C          64.6250   90.3962   13.3415 C.2     1  UNL1        0.1883
     11 N          64.9832   90.9121   14.7037 N.2     1  UNL1       -0.0797
     12 O          65.5195   92.3040   14.5461 O.2     1  UNL1       -0.3845
     13 C          65.4928   92.6485   13.0863 C.3     1  UNL1        0.1669
     14 C          65.4064   92.8498   11.6024 C.3     1  UNL1        0.0431
     15 C          65.8540   94.1457   10.9941 C.3     1  UNL1        0.0037
     16 C          66.3879   95.2404   11.8696 C.3     1  UNL1        0.0002
     17 C          66.4743   95.0392   13.3535 C.3     1  UNL1        0.0037
     18 C          66.0268   93.7432   13.9619 C.3     1  UNL1        0.0431
     19 C          64.9400   91.4695   12.3419 C.3     1  UNL1        0.0999
     20 C          63.1196   81.8571   12.0613 C.ar    1  UNL1        0.0711
     21 C          62.9957   80.3959   12.3770 C.ar    1  UNL1        0.0038
     22 C          62.1798   79.9495   13.5537 C.ar    1  UNL1       -0.0001
     23 C          61.4878   80.9641   14.4149 C.ar    1  UNL1       -0.0000
     24 C          61.6117   82.4253   14.0992 C.ar    1  UNL1       -0.0004
     25 C          62.4276   82.8717   12.9224 C.ar    1  UNL1        0.0004
     26 F          64.7516   82.7501    9.7076 F       1  UNL1       -0.1659
     27 C          63.9356   82.3036   10.8844 C.3     1  UNL1        0.4186
     28 F          62.8999   81.7449    9.9544 F       1  UNL1       -0.1659
     29 F          64.9713   82.8623   11.8146 F       1  UNL1       -0.1659
     30 C          61.1875   86.9565    9.9599 C.3     1  UNL1        0.4221
     31 F          60.4436   87.5377    8.7942 F       1  UNL1       -0.1657
     32 F          62.2524   86.4550    9.0301 F       1  UNL1       -0.1657
     33 F          60.1226   87.4580   10.8896 F       1  UNL1       -0.1657
@<TRIPOS>BOND
     1    26    27    1
     2    27    28    1
     3    27    29    1
     4    27    20    1
     5    20    21   ar
     6    21    22   ar
     7    22    23   ar
     8    23    24   ar
     9    24    25   ar
    10    25     1    1
    11     1     2    2
    12     2     3    1
    13     3    30    1
    14    30    31    1
    15    30    32    1
    16    30    33    1
    17     3     4    2
    18     4     5    1
    19     5     6    2
    20     6    10    1
    21    10    11    2
    22    11    12    1
    23    12    13    1
    24    13    14    1
    25    14    15    1
    26    15    16    1
    27    16    17    1
    28    17    18    1
    29    13    19    1
    30     6     7    1
    31     7     8    2
    32     8     9    1
    33    25    20   ar
    34     9     1    1
    35     8     4    1
    36    19    10    1
    37    18    13    1
@<TRIPOS>MOLECULE
*****
 33 37 0 0 0
SMALL
GASTEIGER

@<TRIPOS>ATOM
      1 C          64.7320   90.4126   13.7153 C.2     1  UNL1       -0.0138
      2 C          63.7733   90.5895   12.5753 C.2     1  UNL1        0.0039
      3 C          63.0260   89.4071   12.0334 C.2     1  UNL1        0.1174
      4 C          63.2375   88.0478   12.6314 C.2     1  UNL1        0.2360
      5 N          62.6471   86.7069   12.3099 N.2     1  UNL1       -0.0297
      6 C          63.2409   85.7013   13.2513 C.2     1  UNL1        0.3923
      7 N          64.1983   86.4207   14.1545 N.2     1  UNL1       -0.0336
      8 C          64.1962   87.8709   13.7714 C.2     1  UNL1        0.2178
      9 C          64.9434   89.0533   14.3133 C.3     1  UNL1        0.1040
     10 C          62.9316   84.2339   13.2837 C.2     1  UNL1        0.1883
     11 N          62.3585   83.4791   14.4464 N.2     1  UNL1       -0.0797
     12 O          62.2138   82.0424   14.0403 O.2     1  UNL1       -0.3845
     13 C          62.6975   81.9092   12.6267 C.3     1  UNL1        0.1669
     14 C          63.2109   81.9301   11.2174 C.3     1  UNL1        0.0431
     15 C          63.2450   80.6647   10.4128 C.3     1  UNL1        0.0037
     16 C          62.7657   79.3783   11.0174 C.3     1  UNL1        0.0002
     17 C          62.2523   79.3574   12.4266 C.3     1  UNL1        0.0037
     18 C          62.2183   80.6228   13.2312 C.3     1  UNL1        0.0431
     19 C          63.1412   83.2636   12.1590 C.3     1  UNL1        0.0999
     20 C          66.1529   92.5511   13.3182 C.ar    1  UNL1        0.0711
     21 C          66.9001   93.7335   13.8601 C.ar    1  UNL1        0.0038
     22 C          66.9736   93.9596   15.3411 C.ar    1  UNL1       -0.0001
     23 C          66.2998   93.0035   16.2801 C.ar    1  UNL1       -0.0000
     24 C          65.5526   91.8211   15.7382 C.ar    1  UNL1       -0.0004
     25 C          65.4792   91.5950   14.2572 C.ar    1  UNL1        0.0004
     26 F          66.0060   92.0987   10.3561 F       1  UNL1       -0.1659
     27 C          66.0794   92.3249   11.8371 C.3     1  UNL1        0.4186
     28 F          64.7965   93.1001   11.7823 F       1  UNL1       -0.1659
     29 F          67.3624   91.5497   11.8919 F       1  UNL1       -0.1659
     30 C          62.0673   89.5840   10.8934 C.3     1  UNL1        0.4221
     31 F          61.1086   89.7609    9.7534 F       1  UNL1       -0.1657
     32 F          63.2208   89.7577    9.9503 F       1  UNL1       -0.1657
     33 F          60.9139   89.4103   11.8365 F       1  UNL1       -0.1657
@<TRIPOS>BOND
     1    26    27    1
     2    27    28    1
     3    27    29    1
     4    27    20    1
     5    20    21   ar
     6    21    22   ar
     7    22    23   ar
     8    23    24   ar
     9    24    25   ar
    10    25     1    1
    11     1     2    2
    12     2     3    1
    13     3    30    1
    14    30    31    1
    15    30    32    1
    16    30    33    1
    17     3     4    2
    18     4     5    1
    19     5     6    2
    20     6    10    1
    21    10    11    2
    22    11    12    1
    23    12    13    1
    24    13    14    1
    25    14    15    1
    26    15    16    1
    27    16    17    1
    28    17    18    1
    29    13    19    1
    30     6     7    1
    31     7     8    2
    32     8     9    1
    33    25    20   ar
    34     9     1    1
    35     8     4    1
    36    19    10    1
    37    18    13    1
@<TRIPOS>MOLECULE
*****
 33 37 0 0 0
SMALL
GASTEIGER

@<TRIPOS>ATOM
      1 C          64.1080   91.0062   11.8761 C.2     1  UNL1       -0.0138
      2 C          62.9945   90.8712   10.8802 C.2     1  UNL1        0.0039
      3 C          62.2338   89.5826   10.7758 C.2     1  UNL1        0.1174
      4 C          62.5866   88.4290   11.6673 C.2     1  UNL1        0.2360
      5 N          62.0186   87.0463   11.7918 N.2     1  UNL1       -0.0297
      6 C          62.7811   86.3268   12.8646 C.2     1  UNL1        0.3923
      7 N          63.8204   87.2648   13.4032 N.2     1  UNL1       -0.0336
      8 C          63.7002   88.5641   12.6632 C.2     1  UNL1        0.2178
      9 C          64.4608   89.8527   12.7676 C.3     1  UNL1        0.1040
     10 C          62.5457   84.9169   13.3190 C.2     1  UNL1        0.1883
     11 N          62.0722   84.4962   14.6788 N.2     1  UNL1       -0.0797
     12 O          61.9763   82.9993   14.6936 O.2     1  UNL1       -0.3845
     13 C          62.3905   82.4948   13.3430 C.3     1  UNL1        0.1669
     14 C          62.8271   82.1405   11.9524 C.3     1  UNL1        0.0431
     15 C          62.8801   80.7034   11.5263 C.3     1  UNL1        0.0037
     16 C          62.4965   79.6204   12.4908 C.3     1  UNL1        0.0002
     17 C          62.0600   79.9747   13.8814 C.3     1  UNL1        0.0037
     18 C          62.0070   81.4119   14.3075 C.3     1  UNL1        0.0431
     19 C          62.7425   83.6799   12.4935 C.3     1  UNL1        0.0999
     20 C          65.5872   92.6408   13.2509 C.ar    1  UNL1        0.0711
     21 C          66.3479   93.9294   13.3553 C.ar    1  UNL1        0.0038
     22 C          66.3899   94.8720   12.1893 C.ar    1  UNL1       -0.0001
     23 C          65.6714   94.5261   10.9189 C.ar    1  UNL1       -0.0000
     24 C          64.9107   93.2374   10.8145 C.ar    1  UNL1       -0.0004
     25 C          64.8687   92.2949   11.9805 C.ar    1  UNL1        0.0004
     26 F          65.5030   90.7555   15.5831 F       1  UNL1       -0.1659
     27 C          65.5451   91.6981   14.4170 C.3     1  UNL1        0.4186
     28 F          66.9524   91.2708   14.1223 F       1  UNL1       -0.1659
     29 F          64.1379   92.1256   14.7117 F       1  UNL1       -0.1659
     30 C          61.1203   89.4475    9.7800 C.3     1  UNL1        0.4221
     31 F          60.0067   89.3125    8.7841 F       1  UNL1       -0.1657
     32 F          60.4191   90.6168   10.4054 F       1  UNL1       -0.1657
     33 F          61.8214   88.2783    9.1545 F       1  UNL1       -0.1657
@<TRIPOS>BOND
     1    26    27    1
     2    27    28    1
     3    27    29    1
     4    27    20    1
     5    20    21   ar
     6    21    22   ar
     7    22    23   ar
     8    23    24   ar
     9    24    25   ar
    10    25     1    1
    11     1     2    2
    12     2     3    1
    13     3    30    1
    14    30    31    1
    15    30    32    1
    16    30    33    1
    17     3     4    2
    18     4     5    1
    19     5     6    2
    20     6    10    1
    21    10    11    2
    22    11    12    1
    23    12    13    1
    24    13    14    1
    25    14    15    1
    26    15    16    1
    27    16    17    1
    28    17    18    1
    29    13    19    1
    30     6     7    1
    31     7     8    2
    32     8     9    1
    33    25    20   ar
    34     9     1    1
    35     8     4    1
    36    19    10    1
    37    18    13    1
@<TRIPOS>MOLECULE
*****
 33 37 0 0 0
SMALL
GASTEIGER

@<TRIPOS>ATOM
      1 C          62.6225   84.7293   12.4889 C.2     1  UNL1       -0.0138
      2 C          61.7972   85.2808   11.3643 C.2     1  UNL1        0.0039
      3 C          61.8819   86.7374   11.0160 C.2     1  UNL1        0.1174
      4 C          62.7918   87.6425   11.7925 C.2     1  UNL1        0.2360
      5 N          63.0829   89.1097   11.6800 N.2     1  UNL1       -0.0297
      6 C          64.0881   89.4649   12.7352 C.2     1  UNL1        0.3923
      7 N          64.4182   88.2173   13.4998 N.2     1  UNL1       -0.0336
      8 C          63.6170   87.0910   12.9171 C.2     1  UNL1        0.2178
      9 C          63.5324   85.6344   13.2653 C.3     1  UNL1        0.1040
     10 C          64.6623   90.8284   12.9825 C.2     1  UNL1        0.1883
     11 N          65.0761   91.3828   14.3135 N.2     1  UNL1       -0.0797
     12 O          65.5931   92.7739   14.0957 O.2     1  UNL1       -0.3845
     13 C          65.4989   93.0794   12.6301 C.3     1  UNL1        0.1669
     14 C          65.3451   93.2406   11.1468 C.3     1  UNL1        0.0431
     15 C          65.7543   94.5232   10.4854 C.3     1  UNL1        0.0037
     16 C          66.3172   95.6446   11.3073 C.3     1  UNL1        0.0002
     17 C          66.4710   95.4834   12.7907 C.3     1  UNL1        0.0037
     18 C          66.0618   94.2008   13.4520 C.3     1  UNL1        0.0431
     19 C          64.9236   91.8770   11.9421 C.3     1  UNL1        0.0999
     20 C          62.4332   82.8496   14.2724 C.ar    1  UNL1        0.0711
     21 C          62.3485   81.3930   14.6206 C.ar    1  UNL1        0.0038
     22 C          62.3684   80.3597   13.5336 C.ar    1  UNL1       -0.0001
     23 C          62.4730   80.7828   12.0984 C.ar    1  UNL1       -0.0000
     24 C          62.5577   82.2394   11.7501 C.ar    1  UNL1       -0.0004
     25 C          62.5378   83.2727   12.8372 C.ar    1  UNL1        0.0004
     26 F          62.3935   84.9164   16.4466 F       1  UNL1       -0.1659
     27 C          62.4133   83.8830   15.3595 C.3     1  UNL1        0.4186
     28 F          61.0058   84.2457   14.9890 F       1  UNL1       -0.1659
     29 F          63.8209   83.5203   15.7300 F       1  UNL1       -0.1659
     30 C          61.0567   87.2888    9.8914 C.3     1  UNL1        0.4221
     31 F          60.2315   87.8403    8.7667 F       1  UNL1       -0.1657
     32 F          62.1737   87.0035    8.9318 F       1  UNL1       -0.1657
     33 F          59.9396   87.5741   10.8509 F       1  UNL1       -0.1657
@<TRIPOS>BOND
     1    26    27    1
     2    27    28    1
     3    27    29    1
     4    27    20    1
     5    20    21   ar
     6    21    22   ar
     7    22    23   ar
     8    23    24   ar
     9    24    25   ar
    10    25     1    1
    11     1     2    2
    12     2     3    1
    13     3    30    1
    14    30    31    1
    15    30    32    1
    16    30    33    1
    17     3     4    2
    18     4     5    1
    19     5     6    2
    20     6    10    1
    21    10    11    2
    22    11    12    1
    23    12    13    1
    24    13    14    1
    25    14    15    1
    26    15    16    1
    27    16    17    1
    28    17    18    1
    29    13    19    1
    30     6     7    1
    31     7     8    2
    32     8     9    1
    33    25    20   ar
    34     9     1    1
    35     8     4    1
    36    19    10    1
    37    18    13    1
