@<TRIPOS>MOLECULE
*****
 30 33 0 0 0
SMALL
GASTEIGER

@<TRIPOS>ATOM
      1 N          62.2615   86.5666   11.7929 N.pl3   1  UNL1       -0.2872
      2 C          62.6445   82.3236   13.2422 C.ar    1  UNL1        0.0715
      3 C          62.3468   83.4249   14.2161 C.ar    1  UNL1        0.0051
      4 C          62.2191   84.8392   13.7330 C.ar    1  UNL1        0.0148
      5 C          62.3892   85.1523   12.2760 C.ar    1  UNL1        0.0515
      6 C          62.6869   84.0510   11.3021 C.ar    1  UNL1        0.0148
      7 C          62.8146   82.6367   11.7852 C.ar    1  UNL1        0.0051
      8 F          62.8998   79.4950   14.2085 F       1  UNL1       -0.1659
      9 C          62.7722   80.9093   13.7253 C.3     1  UNL1        0.4186
     10 F          64.2462   80.9483   13.4500 F       1  UNL1       -0.1659
     11 F          61.2982   80.8703   14.0007 F       1  UNL1       -0.1659
     12 C          61.3166   86.8949   10.6752 C.ar    1  UNL1        0.0710
     13 C          61.4808   86.2378    9.3368 C.ar    1  UNL1        0.0180
     14 C          60.5358   86.5662    8.2191 C.ar    1  UNL1        0.0220
     15 C          59.4267   87.5517    8.4397 C.ar    1  UNL1        0.0990
     16 N          59.2626   88.2088    9.7781 N.ar    1  UNL1       -0.2410
     17 C          60.2075   87.8805   10.8958 C.ar    1  UNL1        0.1136
     18 C          63.0788   87.6525   12.4274 C.3     1  UNL1        0.0807
     19 C          63.1119   89.0215   11.8150 C.3     1  UNL1        0.0415
     20 C          63.9291   90.1074   12.4496 C.3     1  UNL1        0.0925
     21 N          64.7133   89.8246   13.6966 N.pl3   1  UNL1       -0.3074
     22 C          64.6802   88.4557   14.3091 C.3     1  UNL1        0.0925
     23 C          63.8629   87.3697   13.6745 C.3     1  UNL1        0.0415
     24 C          65.5305   90.9106   14.3312 C.ar    1  UNL1        0.0479
     25 C          66.8048   91.3659   13.6839 C.ar    1  UNL1        0.0154
     26 C          67.6220   92.4519   14.3184 C.ar    1  UNL1        0.0127
     27 C          67.1649   93.0827   15.6004 C.ar    1  UNL1        0.0578
     28 CL         67.9822   94.1687   16.2349 Cl      1  UNL1       -0.0822
     29 C          65.8907   92.6274   16.2477 C.ar    1  UNL1        0.0127
     30 C          65.0735   91.5414   15.6131 C.ar    1  UNL1        0.0154
@<TRIPOS>BOND
     1     8     9    1
     2     9    10    1
     3     9    11    1
     4     9     2    1
     5     2     3   ar
     6     3     4   ar
     7     4     5   ar
     8     5     1    1
     9     1    12    1
    10    12    13   ar
    11    13    14   ar
    12    14    15   ar
    13    15    16   ar
    14    16    17   ar
    15     1    18    1
    16    18    19    1
    17    19    20    1
    18    20    21    1
    19    21    24    1
    20    24    25   ar
    21    25    26   ar
    22    26    27   ar
    23    27    28    1
    24    27    29   ar
    25    29    30   ar
    26    21    22    1
    27    22    23    1
    28     5     6   ar
    29     6     7   ar
    30     7     2   ar
    31    17    12   ar
    32    23    18    1
    33    30    24   ar
@<TRIPOS>MOLECULE
*****
 30 33 0 0 0
SMALL
GASTEIGER

@<TRIPOS>ATOM
      1 N          60.8768   94.1146   -2.4777 N.pl3   1  UNL1       -0.2872
      2 C          62.4068   92.4529    1.4143 C.ar    1  UNL1        0.0715
      3 C          63.1618   93.5452    0.7167 C.ar    1  UNL1        0.0051
      4 C          62.6518   94.0991   -0.5806 C.ar    1  UNL1        0.0148
      5 C          61.3868   93.5607   -1.1804 C.ar    1  UNL1        0.0515
      6 C          60.6317   92.4684   -0.4827 C.ar    1  UNL1        0.0148
      7 C          61.1418   91.9145    0.8146 C.ar    1  UNL1        0.0051
      8 F          63.4268   91.3451    4.0090 F       1  UNL1       -0.1659
      9 C          62.9168   91.8990    2.7116 C.3     1  UNL1        0.4186
     10 F          61.5649   92.1011    3.3294 F       1  UNL1       -0.1659
     11 F          64.2687   91.6969    2.0939 F       1  UNL1       -0.1659
     12 C          61.8210   94.3343   -3.6223 C.ar    1  UNL1        0.0710
     13 C          62.8331   93.2839   -3.9719 C.ar    1  UNL1        0.0180
     14 C          63.7774   93.5036   -5.1165 C.ar    1  UNL1        0.0220
     15 C          63.7096   94.7738   -5.9114 C.ar    1  UNL1        0.0990
     16 N          62.6975   95.8243   -5.5618 N.ar    1  UNL1       -0.2410
     17 C          61.7532   95.6045   -4.4173 C.ar    1  UNL1        0.1136
     18 C          59.4225   94.4488   -2.6305 C.3     1  UNL1        0.0807
     19 C          58.5814   93.7014   -3.6225 C.3     1  UNL1        0.0415
     20 C          57.1271   94.0356   -3.7753 C.3     1  UNL1        0.0925
     21 N          56.5139   95.1171   -2.9361 N.pl3   1  UNL1       -0.3074
     22 C          57.3549   95.8644   -1.9441 C.3     1  UNL1        0.0925
     23 C          58.8093   95.5303   -1.7913 C.3     1  UNL1        0.0415
     24 C          55.0595   95.4513   -3.0889 C.ar    1  UNL1        0.0479
     25 C          54.5209   95.8615   -4.4274 C.ar    1  UNL1        0.0154
     26 C          53.0666   96.1957   -4.5801 C.ar    1  UNL1        0.0127
     27 C          52.1510   96.1195   -3.3944 C.ar    1  UNL1        0.0578
     28 CL         50.6966   96.4537   -3.5473 Cl      1  UNL1       -0.0822
     29 C          52.6896   95.7092   -2.0560 C.ar    1  UNL1        0.0127
     30 C          54.1439   95.3751   -1.9032 C.ar    1  UNL1        0.0154
@<TRIPOS>BOND
     1     8     9    1
     2     9    10    1
     3     9    11    1
     4     9     2    1
     5     2     3   ar
     6     3     4   ar
     7     4     5   ar
     8     5     1    1
     9     1    12    1
    10    12    13   ar
    11    13    14   ar
    12    14    15   ar
    13    15    16   ar
    14    16    17   ar
    15     1    18    1
    16    18    19    1
    17    19    20    1
    18    20    21    1
    19    21    24    1
    20    24    25   ar
    21    25    26   ar
    22    26    27   ar
    23    27    28    1
    24    27    29   ar
    25    29    30   ar
    26    21    22    1
    27    22    23    1
    28     5     6   ar
    29     6     7   ar
    30     7     2   ar
    31    17    12   ar
    32    23    18    1
    33    30    24   ar
@<TRIPOS>MOLECULE
*****
 30 33 0 0 0
SMALL
GASTEIGER

@<TRIPOS>ATOM
      1 N          62.6958   88.1640   11.9544 N.pl3   1  UNL1       -0.2872
      2 C          63.1478   83.7334   12.5993 C.ar    1  UNL1        0.0715
      3 C          62.4452   84.2456   11.3770 C.ar    1  UNL1        0.0051
      4 C          62.2945   85.7224   11.1620 C.ar    1  UNL1        0.0148
      5 C          62.8465   86.6871   12.1693 C.ar    1  UNL1        0.0515
      6 C          63.5490   86.1749   13.3916 C.ar    1  UNL1        0.0148
      7 C          63.6997   84.6981   13.6066 C.ar    1  UNL1        0.0051
      8 F          63.4490   80.7797   13.0293 F       1  UNL1       -0.1659
      9 C          63.2984   82.2566   12.8143 C.3     1  UNL1        0.4186
     10 F          61.8223   82.1410   13.0545 F       1  UNL1       -0.1659
     11 F          64.7745   82.3721   12.5740 F       1  UNL1       -0.1659
     12 C          61.5859   88.6869   11.0915 C.ar    1  UNL1        0.0710
     13 C          61.5154   88.3000    9.6440 C.ar    1  UNL1        0.0180
     14 C          60.4054   88.8230    8.7811 C.ar    1  UNL1        0.0220
     15 C          59.3660   89.7328    9.3658 C.ar    1  UNL1        0.0990
     16 N          59.4365   90.1197   10.8133 N.ar    1  UNL1       -0.2410
     17 C          60.5464   89.5967   11.6762 C.ar    1  UNL1        0.1136
     18 C          63.6551   89.1179   12.6022 C.3     1  UNL1        0.0807
     19 C          64.0147   90.4021   11.9155 C.3     1  UNL1        0.0415
     20 C          64.9740   91.3560   12.5633 C.3     1  UNL1        0.0925
     21 N          65.5737   91.0258   13.8980 N.pl3   1  UNL1       -0.3074
     22 C          65.2141   89.7417   14.5848 C.3     1  UNL1        0.0925
     23 C          64.2548   88.7877   13.9369 C.3     1  UNL1        0.0415
     24 C          66.5330   91.9798   14.5459 C.ar    1  UNL1        0.0479
     25 C          67.5537   91.4710   15.5201 C.ar    1  UNL1        0.0154
     26 C          68.5130   92.4250   16.1680 C.ar    1  UNL1        0.0127
     27 C          68.4515   93.8877   15.8415 C.ar    1  UNL1        0.0578
     28 CL         69.4108   94.8417   16.4894 Cl      1  UNL1       -0.0822
     29 C          67.4308   94.3965   14.8672 C.ar    1  UNL1        0.0127
     30 C          66.4716   93.4425   14.2194 C.ar    1  UNL1        0.0154
@<TRIPOS>BOND
     1     8     9    1
     2     9    10    1
     3     9    11    1
     4     9     2    1
     5     2     3   ar
     6     3     4   ar
     7     4     5   ar
     8     5     1    1
     9     1    12    1
    10    12    13   ar
    11    13    14   ar
    12    14    15   ar
    13    15    16   ar
    14    16    17   ar
    15     1    18    1
    16    18    19    1
    17    19    20    1
    18    20    21    1
    19    21    24    1
    20    24    25   ar
    21    25    26   ar
    22    26    27   ar
    23    27    28    1
    24    27    29   ar
    25    29    30   ar
    26    21    22    1
    27    22    23    1
    28     5     6   ar
    29     6     7   ar
    30     7     2   ar
    31    17    12   ar
    32    23    18    1
    33    30    24   ar
@<TRIPOS>MOLECULE
*****
 30 33 0 0 0
SMALL
GASTEIGER

@<TRIPOS>ATOM
      1 N          62.0686   93.8697   -1.7840 N.pl3   1  UNL1       -0.2872
      2 C          64.9379   93.9242   -5.2502 C.ar    1  UNL1        0.0715
      3 C          64.4372   95.2139   -4.6707 C.ar    1  UNL1        0.0051
      4 C          63.4808   95.1958   -3.5153 C.ar    1  UNL1        0.0148
      5 C          63.0251   93.8879   -2.9394 C.ar    1  UNL1        0.0515
      6 C          63.5258   92.5982   -3.5189 C.ar    1  UNL1        0.0148
      7 C          64.4822   92.6163   -4.6743 C.ar    1  UNL1        0.0051
      8 F          66.8507   93.9606   -7.5609 F       1  UNL1       -0.1659
      9 C          65.8943   93.9424   -6.4055 C.3     1  UNL1        0.4186
     10 F          65.7077   92.4647   -6.5832 F       1  UNL1       -0.1659
     11 F          66.0809   95.4201   -6.2278 F       1  UNL1       -0.1659
     12 C          62.5540   93.4975   -0.4144 C.ar    1  UNL1        0.0710
     13 C          61.6696   92.7101    0.5064 C.ar    1  UNL1        0.0180
     14 C          62.1551   92.3379    1.8761 C.ar    1  UNL1        0.0220
     15 C          63.5248   92.7531    2.3249 C.ar    1  UNL1        0.0990
     16 N          64.4091   93.5406    1.4041 N.ar    1  UNL1       -0.2410
     17 C          63.9238   93.9128    0.0345 C.ar    1  UNL1        0.1136
     18 C          60.6269   94.2237   -1.9982 C.3     1  UNL1        0.0807
     19 C          59.7700   93.3732   -2.8884 C.3     1  UNL1        0.0415
     20 C          58.3282   93.7272   -3.1026 C.3     1  UNL1        0.0925
     21 N          57.7433   94.9317   -2.4266 N.pl3   1  UNL1       -0.3074
     22 C          58.6001   95.7823   -1.5365 C.3     1  UNL1        0.0925
     23 C          60.0419   95.4283   -1.3222 C.3     1  UNL1        0.0415
     24 C          56.3014   95.2857   -2.6409 C.ar    1  UNL1        0.0479
     25 C          55.3715   95.3858   -1.4682 C.ar    1  UNL1        0.0154
     26 C          53.9297   95.7398   -1.6825 C.ar    1  UNL1        0.0127
     27 C          53.4179   95.9937   -3.0695 C.ar    1  UNL1        0.0578
     28 CL         51.9760   96.3477   -3.2837 Cl      1  UNL1       -0.0822
     29 C          54.3478   95.8936   -4.2421 C.ar    1  UNL1        0.0127
     30 C          55.7896   95.5396   -4.0278 C.ar    1  UNL1        0.0154
@<TRIPOS>BOND
     1     8     9    1
     2     9    10    1
     3     9    11    1
     4     9     2    1
     5     2     3   ar
     6     3     4   ar
     7     4     5   ar
     8     5     1    1
     9     1    12    1
    10    12    13   ar
    11    13    14   ar
    12    14    15   ar
    13    15    16   ar
    14    16    17   ar
    15     1    18    1
    16    18    19    1
    17    19    20    1
    18    20    21    1
    19    21    24    1
    20    24    25   ar
    21    25    26   ar
    22    26    27   ar
    23    27    28    1
    24    27    29   ar
    25    29    30   ar
    26    21    22    1
    27    22    23    1
    28     5     6   ar
    29     6     7   ar
    30     7     2   ar
    31    17    12   ar
    32    23    18    1
    33    30    24   ar
@<TRIPOS>MOLECULE
*****
 30 33 0 0 0
SMALL
GASTEIGER

@<TRIPOS>ATOM
      1 N          62.6316   86.5517   12.3869 N.pl3   1  UNL1       -0.2872
      2 C          60.0615   87.2964    8.7689 C.ar    1  UNL1        0.0715
      3 C          61.2877   86.4401    8.6544 C.ar    1  UNL1        0.0051
      4 C          62.1444   86.1919    9.8604 C.ar    1  UNL1        0.0148
      5 C          61.7749   86.8000   11.1809 C.ar    1  UNL1        0.0515
      6 C          60.5488   87.6563   11.2953 C.ar    1  UNL1        0.0148
      7 C          59.6921   87.9046   10.0893 C.ar    1  UNL1        0.0051
      8 F          58.3481   87.7929    6.3569 F       1  UNL1       -0.1659
      9 C          59.2048   87.5447    7.5629 C.3     1  UNL1        0.4186
     10 F          59.4026   89.0225    7.7266 F       1  UNL1       -0.1659
     11 F          59.0070   86.0668    7.3992 F       1  UNL1       -0.1659
     12 C          62.6611   85.1917   13.0189 C.ar    1  UNL1        0.0710
     13 C          63.0820   83.9990   12.2126 C.ar    1  UNL1        0.0180
     14 C          63.1114   82.6389   12.8446 C.ar    1  UNL1        0.0220
     15 C          62.7199   82.4717   14.2829 C.ar    1  UNL1        0.0990
     16 N          62.2990   83.6644   15.0892 N.ar    1  UNL1       -0.2410
     17 C          62.2696   85.0244   14.4572 C.ar    1  UNL1        0.1136
     18 C          63.4589   87.6635   12.9609 C.3     1  UNL1        0.0807
     19 C          63.4355   89.0216   12.3242 C.3     1  UNL1        0.0415
     20 C          64.2628   90.1333   12.8982 C.3     1  UNL1        0.0925
     21 N          65.1135   89.8872   14.1089 N.pl3   1  UNL1       -0.3074
     22 C          65.1369   88.5292   14.7456 C.3     1  UNL1        0.0925
     23 C          64.3096   87.4174   14.1715 C.3     1  UNL1        0.0415
     24 C          65.9408   90.9990   14.6829 C.ar    1  UNL1        0.0479
     25 C          67.3230   91.2530   14.1587 C.ar    1  UNL1        0.0154
     26 C          68.1502   92.3649   14.7327 C.ar    1  UNL1        0.0127
     27 C          67.5952   93.2227   15.8309 C.ar    1  UNL1        0.0578
     28 CL         68.4225   94.3346   16.4049 Cl      1  UNL1       -0.0822
     29 C          66.2129   92.9687   16.3551 C.ar    1  UNL1        0.0127
     30 C          65.3857   91.8569   15.7811 C.ar    1  UNL1        0.0154
@<TRIPOS>BOND
     1     8     9    1
     2     9    10    1
     3     9    11    1
     4     9     2    1
     5     2     3   ar
     6     3     4   ar
     7     4     5   ar
     8     5     1    1
     9     1    12    1
    10    12    13   ar
    11    13    14   ar
    12    14    15   ar
    13    15    16   ar
    14    16    17   ar
    15     1    18    1
    16    18    19    1
    17    19    20    1
    18    20    21    1
    19    21    24    1
    20    24    25   ar
    21    25    26   ar
    22    26    27   ar
    23    27    28    1
    24    27    29   ar
    25    29    30   ar
    26    21    22    1
    27    22    23    1
    28     5     6   ar
    29     6     7   ar
    30     7     2   ar
    31    17    12   ar
    32    23    18    1
    33    30    24   ar
@<TRIPOS>MOLECULE
*****
 30 33 0 0 0
SMALL
GASTEIGER

@<TRIPOS>ATOM
      1 N          60.1663   95.0654   -1.9187 N.pl3   1  UNL1       -0.2872
      2 C          61.3097   92.7904    1.7917 C.ar    1  UNL1        0.0715
      3 C          61.3850   92.1237    0.4501 C.ar    1  UNL1        0.0051
      4 C          61.0039   92.8821   -0.7867 C.ar    1  UNL1        0.0148
      5 C          60.5474   94.3070   -0.6819 C.ar    1  UNL1        0.0515
      6 C          60.4721   94.9737    0.6596 C.ar    1  UNL1        0.0148
      7 C          60.8532   94.2154    1.8964 C.ar    1  UNL1        0.0051
      8 F          62.0720   91.2738    4.2653 F       1  UNL1       -0.1659
      9 C          61.6908   92.0321    3.0285 C.3     1  UNL1        0.4186
     10 F          62.9839   91.6298    2.3833 F       1  UNL1       -0.1659
     11 F          60.3978   92.4344    3.6736 F       1  UNL1       -0.1659
     12 C          61.2319   95.6360   -2.8069 C.ar    1  UNL1        0.0710
     13 C          62.6688   95.5907   -2.3787 C.ar    1  UNL1        0.0180
     14 C          63.7344   96.1613   -3.2669 C.ar    1  UNL1        0.0220
     15 C          63.3631   96.7772   -4.5833 C.ar    1  UNL1        0.0990
     16 N          61.9263   96.8224   -5.0115 N.ar    1  UNL1       -0.2410
     17 C          60.8607   96.2518   -4.1233 C.ar    1  UNL1        0.1136
     18 C          58.7195   95.2531   -2.2674 C.3     1  UNL1        0.0807
     19 C          57.9752   96.4525   -1.7599 C.3     1  UNL1        0.0415
     20 C          56.5285   96.6402   -2.1085 C.3     1  UNL1        0.0925
     21 N          55.8259   95.6286   -2.9647 N.pl3   1  UNL1       -0.3074
     22 C          56.5702   94.4292   -3.4722 C.3     1  UNL1        0.0925
     23 C          58.0170   94.2414   -3.1236 C.3     1  UNL1        0.0415
     24 C          54.3791   95.8164   -3.3134 C.ar    1  UNL1        0.0479
     25 C          53.9720   96.0166   -4.7431 C.ar    1  UNL1        0.0154
     26 C          52.5253   96.2043   -5.0917 C.ar    1  UNL1        0.0127
     27 C          51.4856   96.1919   -4.0106 C.ar    1  UNL1        0.0578
     28 CL         50.0387   96.3796   -4.3592 Cl      1  UNL1       -0.0822
     29 C          51.8926   95.9917   -2.5808 C.ar    1  UNL1        0.0127
     30 C          53.3394   95.8039   -2.2322 C.ar    1  UNL1        0.0154
@<TRIPOS>BOND
     1     8     9    1
     2     9    10    1
     3     9    11    1
     4     9     2    1
     5     2     3   ar
     6     3     4   ar
     7     4     5   ar
     8     5     1    1
     9     1    12    1
    10    12    13   ar
    11    13    14   ar
    12    14    15   ar
    13    15    16   ar
    14    16    17   ar
    15     1    18    1
    16    18    19    1
    17    19    20    1
    18    20    21    1
    19    21    24    1
    20    24    25   ar
    21    25    26   ar
    22    26    27   ar
    23    27    28    1
    24    27    29   ar
    25    29    30   ar
    26    21    22    1
    27    22    23    1
    28     5     6   ar
    29     6     7   ar
    30     7     2   ar
    31    17    12   ar
    32    23    18    1
    33    30    24   ar
@<TRIPOS>MOLECULE
*****
 30 33 0 0 0
SMALL
GASTEIGER

@<TRIPOS>ATOM
      1 N          61.3226   93.9046    0.7501 N.pl3   1  UNL1       -0.2872
      2 C          60.0279   91.5421    4.3546 C.ar    1  UNL1        0.0715
      3 C          59.0174   92.3205    3.5655 C.ar    1  UNL1        0.0051
      4 C          59.4489   93.1080    2.3640 C.ar    1  UNL1        0.0148
      5 C          60.8911   93.1171    1.9516 C.ar    1  UNL1        0.0515
      6 C          61.9016   92.3387    2.7407 C.ar    1  UNL1        0.0148
      7 C          61.4701   91.5512    3.9422 C.ar    1  UNL1        0.0051
      8 F          59.1648   89.9671    6.7576 F       1  UNL1       -0.1659
      9 C          59.5964   90.7546    5.5561 C.3     1  UNL1        0.4186
     10 F          60.9391   90.0874    5.6011 F       1  UNL1       -0.1659
     11 F          58.2537   91.4218    5.5111 F       1  UNL1       -0.1659
     12 C          62.6635   94.5766    0.7359 C.ar    1  UNL1        0.0710
     13 C          62.8773   95.8408    1.5145 C.ar    1  UNL1        0.0180
     14 C          64.2183   96.5128    1.5002 C.ar    1  UNL1        0.0220
     15 C          65.3455   95.9206    0.7074 C.ar    1  UNL1        0.0990
     16 N          65.1318   94.6565   -0.0713 N.ar    1  UNL1       -0.2410
     17 C          63.7909   93.9845   -0.0570 C.ar    1  UNL1        0.1136
     18 C          60.4132   94.0201   -0.4372 C.3     1  UNL1        0.0807
     19 C          59.9090   92.7827   -1.1189 C.3     1  UNL1        0.0415
     20 C          58.9997   92.8982   -2.3062 C.3     1  UNL1        0.0925
     21 N          58.5944   94.2510   -2.8118 N.pl3   1  UNL1       -0.3074
     22 C          59.0986   95.4884   -2.1301 C.3     1  UNL1        0.0925
     23 C          60.0080   95.3729   -0.9427 C.3     1  UNL1        0.0415
     24 C          57.6850   94.3665   -3.9991 C.ar    1  UNL1        0.0479
     25 C          58.1937   94.0285   -5.3691 C.ar    1  UNL1        0.0154
     26 C          57.2843   94.1440   -6.5564 C.ar    1  UNL1        0.0127
     27 C          55.8662   94.5974   -6.3736 C.ar    1  UNL1        0.0578
     28 CL         54.9567   94.7129   -7.5609 Cl      1  UNL1       -0.0822
     29 C          55.3575   94.9354   -5.0036 C.ar    1  UNL1        0.0127
     30 C          56.2669   94.8199   -3.8163 C.ar    1  UNL1        0.0154
@<TRIPOS>BOND
     1     8     9    1
     2     9    10    1
     3     9    11    1
     4     9     2    1
     5     2     3   ar
     6     3     4   ar
     7     4     5   ar
     8     5     1    1
     9     1    12    1
    10    12    13   ar
    11    13    14   ar
    12    14    15   ar
    13    15    16   ar
    14    16    17   ar
    15     1    18    1
    16    18    19    1
    17    19    20    1
    18    20    21    1
    19    21    24    1
    20    24    25   ar
    21    25    26   ar
    22    26    27   ar
    23    27    28    1
    24    27    29   ar
    25    29    30   ar
    26    21    22    1
    27    22    23    1
    28     5     6   ar
    29     6     7   ar
    30     7     2   ar
    31    17    12   ar
    32    23    18    1
    33    30    24   ar
@<TRIPOS>MOLECULE
*****
 30 33 0 0 0
SMALL
GASTEIGER

@<TRIPOS>ATOM
      1 N          62.3731   85.3985   11.1924 N.pl3   1  UNL1       -0.2872
      2 C          62.6453   81.2082   12.8103 C.ar    1  UNL1        0.0715
      3 C          62.1574   82.3214   13.6894 C.ar    1  UNL1        0.0051
      4 C          62.0666   83.7181   13.1501 C.ar    1  UNL1        0.0148
      5 C          62.4638   84.0017   11.7317 C.ar    1  UNL1        0.0515
      6 C          62.9517   82.8886   10.8527 C.ar    1  UNL1        0.0148
      7 C          63.0425   81.4918   11.3920 C.ar    1  UNL1        0.0051
      8 F          62.8268   78.4147   13.8889 F       1  UNL1       -0.1659
      9 C          62.7360   79.8115   13.3496 C.3     1  UNL1        0.4186
     10 F          62.4950   79.2646   11.9738 F       1  UNL1       -0.1659
     11 F          62.9770   80.3583   14.7254 F       1  UNL1       -0.1659
     12 C          61.7333   85.6474    9.8588 C.ar    1  UNL1        0.0710
     13 C          60.3963   86.3231    9.7827 C.ar    1  UNL1        0.0180
     14 C          59.7565   86.5721    8.4490 C.ar    1  UNL1        0.0220
     15 C          60.4538   86.1453    7.1914 C.ar    1  UNL1        0.0990
     16 N          61.7908   85.4696    7.2674 N.ar    1  UNL1       -0.2410
     17 C          62.4306   85.2207    8.6011 C.ar    1  UNL1        0.1136
     18 C          62.9221   86.5463   11.9868 C.3     1  UNL1        0.0807
     19 C          62.7083   87.9545   11.5161 C.3     1  UNL1        0.0415
     20 C          63.2573   89.1023   12.3105 C.3     1  UNL1        0.0925
     21 N          64.0202   88.8420   13.5755 N.pl3   1  UNL1       -0.3074
     22 C          64.2340   87.4339   14.0462 C.3     1  UNL1        0.0925
     23 C          63.6849   86.2860   13.2519 C.3     1  UNL1        0.0415
     24 C          64.5692   89.9899   14.3699 C.ar    1  UNL1        0.0479
     25 C          63.8724   90.4379   15.6204 C.ar    1  UNL1        0.0154
     26 C          64.4214   91.5858   16.4147 C.ar    1  UNL1        0.0127
     27 C          65.6673   92.2856   15.9585 C.ar    1  UNL1        0.0578
     28 CL         66.2163   93.4335   16.7529 Cl      1  UNL1       -0.0822
     29 C          66.3641   91.8376   14.7080 C.ar    1  UNL1        0.0127
     30 C          65.8151   90.6897   13.9137 C.ar    1  UNL1        0.0154
@<TRIPOS>BOND
     1     8     9    1
     2     9    10    1
     3     9    11    1
     4     9     2    1
     5     2     3   ar
     6     3     4   ar
     7     4     5   ar
     8     5     1    1
     9     1    12    1
    10    12    13   ar
    11    13    14   ar
    12    14    15   ar
    13    15    16   ar
    14    16    17   ar
    15     1    18    1
    16    18    19    1
    17    19    20    1
    18    20    21    1
    19    21    24    1
    20    24    25   ar
    21    25    26   ar
    22    26    27   ar
    23    27    28    1
    24    27    29   ar
    25    29    30   ar
    26    21    22    1
    27    22    23    1
    28     5     6   ar
    29     6     7   ar
    30     7     2   ar
    31    17    12   ar
    32    23    18    1
    33    30    24   ar
@<TRIPOS>MOLECULE
*****
 30 33 0 0 0
SMALL
GASTEIGER

@<TRIPOS>ATOM
      1 N          62.6413   88.6455   12.0950 N.pl3   1  UNL1       -0.2872
      2 C          65.6351   91.1499   14.3343 C.ar    1  UNL1        0.0715
      3 C          65.0878   91.6295   13.0227 C.ar    1  UNL1        0.0051
      4 C          64.0898   90.7947   12.2763 C.ar    1  UNL1        0.0148
      5 C          63.6392   89.4803   12.8414 C.ar    1  UNL1        0.0515
      6 C          64.1866   89.0008   14.1530 C.ar    1  UNL1        0.0148
      7 C          65.1846   89.8356   14.8995 C.ar    1  UNL1        0.0051
      8 F          67.6311   92.8196   15.8272 F       1  UNL1       -0.1659
      9 C          66.6331   91.9848   15.0808 C.3     1  UNL1        0.4186
     10 F          65.5593   92.4145   16.0358 F       1  UNL1       -0.1659
     11 F          67.7069   91.5551   14.1257 F       1  UNL1       -0.1659
     12 C          61.6343   89.3032   11.1986 C.ar    1  UNL1        0.0710
     13 C          61.7098   89.1055    9.7136 C.ar    1  UNL1        0.0180
     14 C          60.7027   89.7632    8.8173 C.ar    1  UNL1        0.0220
     15 C          59.6202   90.6185    9.4060 C.ar    1  UNL1        0.0990
     16 N          59.5447   90.8162   10.8910 N.ar    1  UNL1       -0.2410
     17 C          60.5517   90.1585   11.7873 C.ar    1  UNL1        0.1136
     18 C          62.6503   87.1531   12.2448 C.3     1  UNL1        0.0807
     19 C          63.4240   86.5161   13.3610 C.3     1  UNL1        0.0415
     20 C          63.4330   85.0236   13.5109 C.3     1  UNL1        0.0925
     21 N          62.6684   84.1682   12.5447 N.pl3   1  UNL1       -0.3074
     22 C          61.8948   84.8051   11.4286 C.3     1  UNL1        0.0925
     23 C          61.8857   86.2976   11.2786 C.3     1  UNL1        0.0415
     24 C          62.6775   82.6756   12.6946 C.ar    1  UNL1        0.0479
     25 C          62.9969   81.8053   11.5154 C.ar    1  UNL1        0.0154
     26 C          63.0060   80.3129   11.6654 C.ar    1  UNL1        0.0127
     27 C          62.6956   79.6908   12.9945 C.ar    1  UNL1        0.0578
     28 CL         62.7046   78.1983   13.1445 Cl      1  UNL1       -0.0822
     29 C          62.3761   80.5611   14.1737 C.ar    1  UNL1        0.0127
     30 C          62.3671   82.0535   14.0237 C.ar    1  UNL1        0.0154
@<TRIPOS>BOND
     1     8     9    1
     2     9    10    1
     3     9    11    1
     4     9     2    1
     5     2     3   ar
     6     3     4   ar
     7     4     5   ar
     8     5     1    1
     9     1    12    1
    10    12    13   ar
    11    13    14   ar
    12    14    15   ar
    13    15    16   ar
    14    16    17   ar
    15     1    18    1
    16    18    19    1
    17    19    20    1
    18    20    21    1
    19    21    24    1
    20    24    25   ar
    21    25    26   ar
    22    26    27   ar
    23    27    28    1
    24    27    29   ar
    25    29    30   ar
    26    21    22    1
    27    22    23    1
    28     5     6   ar
    29     6     7   ar
    30     7     2   ar
    31    17    12   ar
    32    23    18    1
    33    30    24   ar
