@<TRIPOS>MOLECULE
*****
 32 35 0 0 0
SMALL
GASTEIGER

@<TRIPOS>ATOM
      1 C          63.7885   89.5215   15.1197 C.2     1  UNL1        0.2320
      2 O          62.3931   89.4100   15.6588 O.2     1  UNL1       -0.2744
      3 N          64.5825   88.2820   14.8316 N.am    1  UNL1       -0.2639
      4 H          65.4983   88.3552   14.4778 H       1  UNL1        0.1567
      5 C          63.9812   86.9309   15.0824 C.ar    1  UNL1        0.1655
      6 N          63.7775   85.8527   14.0597 N.ar    1  UNL1       -0.2239
      7 C          63.1484   84.6762   14.7452 C.ar    1  UNL1        0.0913
      8 C          62.9632   85.0272   16.1918 C.ar    1  UNL1        0.0573
      9 S          63.4779   86.4207   16.4002 S.2     1  UNL1       -0.0508
     10 C          62.7708   83.3768   14.0980 C.ar    1  UNL1        0.0403
     11 C          61.9103   82.3076   14.7033 C.ar    1  UNL1        0.1021
     12 N          61.7951   81.1885   13.7111 N.ar    1  UNL1       -0.2269
     13 C          62.5843   81.5661   12.4927 C.ar    1  UNL1        0.1406
     14 N          62.8318   80.8531   11.1964 N.ar    1  UNL1       -0.3374
     15 C          63.6823   81.4926   10.1392 C.ar    1  UNL1        0.0735
     16 C          64.2853   82.8451   10.3783 C.ar    1  UNL1        0.0186
     17 C          64.0378   83.5581   11.6746 C.ar    1  UNL1        0.0046
     18 C          63.1874   82.9186   12.7318 C.ar    1  UNL1        0.0370
     19 H          62.4360   79.9654   11.0395 H       1  UNL1        0.1674
     20 C          64.3898   90.8726   14.8688 C.3     1  UNL1        0.1117
     21 C          65.7599   92.9057   11.7480 C.ar    1  UNL1        0.0641
     22 C          64.8883   92.3658   10.6531 C.ar    1  UNL1        0.0158
     23 C          63.8505   91.3282   10.9634 C.ar    1  UNL1        0.0010
     24 C          63.6843   90.8304   12.3687 C.ar    1  UNL1       -0.0037
     25 C          64.5560   91.3704   13.4636 C.ar    1  UNL1       -0.0118
     26 C          65.5938   92.4080   13.1532 C.ar    1  UNL1        0.0121
     27 N          66.7977   93.9433   11.4377 N.pl3   1  UNL1       -0.2187
     28 H          67.2885   94.3829   12.1693 H       1  UNL1        0.1734
     29 C          67.3779   94.6793    8.5878 C.3     1  UNL1        0.1996
     30 S          67.0878   94.3113   10.0128 S.O2    1  UNL1        0.0558
     31 O          66.0454   95.3879   10.0786 O.2     1  UNL1       -0.1544
     32 O          68.1302   93.2347    9.9469 O.2     1  UNL1       -0.1544
@<TRIPOS>BOND
     1    29    30    1
     2    30    31    2
     3    30    32    2
     4    30    27    1
     5    27    21    1
     6    21    22   ar
     7    22    23   ar
     8    23    24   ar
     9    24    25   ar
    10    25    20    1
    11    20     1    1
    12     1     2    2
    13     1     3   am
    14     3     5    1
    15     5     6   ar
    16     6     7   ar
    17     7    10    1
    18    10    11   ar
    19    11    12   ar
    20    12    13   ar
    21    13    14   ar
    22    14    15   ar
    23    15    16   ar
    24    16    17   ar
    25    17    18   ar
    26     7     8   ar
    27     8     9   ar
    28    25    26   ar
    29    26    21   ar
    30     9     5   ar
    31    18    10   ar
    32    18    13    1
    33    27    28    1
    34     3     4    1
    35    14    19    1
@<TRIPOS>MOLECULE
*****
 32 35 0 0 0
SMALL
GASTEIGER

@<TRIPOS>ATOM
      1 C          63.7536   89.4849   13.5278 C.2     1  UNL1        0.2320
      2 O          63.7292   87.9888   13.4221 O.2     1  UNL1       -0.2744
      3 N          62.6848   90.3012   12.8635 N.am    1  UNL1       -0.2639
      4 H          62.7009   91.2831   12.9328 H       1  UNL1        0.1567
      5 C          61.5917   89.6215   12.0936 C.ar    1  UNL1        0.1655
      6 N          61.7636   88.8272   10.8328 N.ar    1  UNL1       -0.2239
      7 C          60.4128   88.3315   10.4092 C.ar    1  UNL1        0.0913
      8 C          59.4058   88.8194   11.4082 C.ar    1  UNL1        0.0573
      9 S          60.1344   89.6166   12.4492 S.2     1  UNL1       -0.0508
     10 C          60.1202   87.4948    9.1991 C.ar    1  UNL1        0.0403
     11 C          58.8413   87.4951    8.4152 C.ar    1  UNL1        0.1021
     12 N          58.9859   86.5114    7.2921 N.ar    1  UNL1       -0.2269
     13 C          60.3541   85.9031    7.3819 C.ar    1  UNL1        0.1406
     14 N          61.0521   84.8744    6.5426 N.ar    1  UNL1       -0.3374
     15 C          62.4512   84.4534    6.8820 C.ar    1  UNL1        0.0735
     16 C          63.1523   85.0612    8.0607 C.ar    1  UNL1        0.0186
     17 C          62.4542   86.0899    8.8999 C.ar    1  UNL1        0.0046
     18 C          61.0551   86.5109    8.5605 C.ar    1  UNL1        0.0370
     19 H          60.5920   84.4754    5.7691 H       1  UNL1        0.1674
     20 C          64.8468   90.1646   14.2977 C.3     1  UNL1        0.1117
     21 C          65.7142   93.2443   11.9496 C.ar    1  UNL1        0.0641
     22 C          66.4404   94.1380   12.9108 C.ar    1  UNL1        0.0158
     23 C          66.6354   93.7073   14.3344 C.ar    1  UNL1        0.0010
     24 C          66.1042   92.3827   14.7967 C.ar    1  UNL1       -0.0037
     25 C          65.3780   91.4890   13.8354 C.ar    1  UNL1       -0.0118
     26 C          65.1830   91.9199   12.4118 C.ar    1  UNL1        0.0121
     27 N          65.5191   93.6750   10.5261 N.pl3   1  UNL1       -0.2187
     28 H          64.6415   93.5641   10.0941 H       1  UNL1        0.1734
     29 C          67.8035   94.8746    8.9954 C.3     1  UNL1        0.1996
     30 S          66.6613   94.2747    9.7608 S.O2    1  UNL1        0.0558
     31 O          65.9640   95.6029    9.7609 O.2     1  UNL1       -0.1544
     32 O          67.3587   92.9467    9.7606 O.2     1  UNL1       -0.1544
@<TRIPOS>BOND
     1    29    30    1
     2    30    31    2
     3    30    32    2
     4    30    27    1
     5    27    21    1
     6    21    22   ar
     7    22    23   ar
     8    23    24   ar
     9    24    25   ar
    10    25    20    1
    11    20     1    1
    12     1     2    2
    13     1     3   am
    14     3     5    1
    15     5     6   ar
    16     6     7   ar
    17     7    10    1
    18    10    11   ar
    19    11    12   ar
    20    12    13   ar
    21    13    14   ar
    22    14    15   ar
    23    15    16   ar
    24    16    17   ar
    25    17    18   ar
    26     7     8   ar
    27     8     9   ar
    28    25    26   ar
    29    26    21   ar
    30     9     5   ar
    31    18    10   ar
    32    18    13    1
    33    27    28    1
    34     3     4    1
    35    14    19    1
@<TRIPOS>MOLECULE
*****
 32 35 0 0 0
SMALL
GASTEIGER

@<TRIPOS>ATOM
      1 C          63.6876   89.4682   15.1031 C.2     1  UNL1        0.2320
      2 O          62.4833   89.2650   15.9739 O.2     1  UNL1       -0.2744
      3 N          64.4291   88.2827   14.5601 N.am    1  UNL1       -0.2639
      4 H          65.2195   88.4160   13.9885 H       1  UNL1        0.1567
      5 C          63.9663   86.8941   14.8878 C.ar    1  UNL1        0.1655
      6 N          63.6293   85.8200   13.8966 N.ar    1  UNL1       -0.2239
      7 C          63.2139   84.5978   14.6605 C.ar    1  UNL1        0.0913
      8 C          63.2941   84.9165   16.1241 C.ar    1  UNL1        0.0573
      9 S          63.7591   86.3357   16.2646 S.2     1  UNL1       -0.0508
     10 C          62.7923   83.2870   14.0655 C.ar    1  UNL1        0.0403
     11 C          61.9132   82.2634   14.7207 C.ar    1  UNL1        0.1021
     12 N          61.7534   81.1135   13.7709 N.ar    1  UNL1       -0.2269
     13 C          62.5336   81.4265   12.5286 C.ar    1  UNL1        0.1406
     14 N          62.7423   80.6618   11.2552 N.ar    1  UNL1       -0.3374
     15 C          63.5932   81.2405   10.1638 C.ar    1  UNL1        0.0735
     16 C          64.2352   82.5838   10.3458 C.ar    1  UNL1        0.0186
     17 C          64.0265   83.3485   11.6193 C.ar    1  UNL1        0.0046
     18 C          63.1757   82.7698   12.7107 C.ar    1  UNL1        0.0370
     19 H          62.3209   79.7801   11.1357 H       1  UNL1        0.1674
     20 C          64.1505   90.8568   14.7753 C.3     1  UNL1        0.1117
     21 C          63.3763   91.2847   10.9065 C.ar    1  UNL1        0.0641
     22 C          64.5266   92.1483   10.4810 C.ar    1  UNL1        0.0158
     23 C          65.5516   92.5813   11.4869 C.ar    1  UNL1        0.0010
     24 C          65.4262   92.1508   12.9184 C.ar    1  UNL1       -0.0037
     25 C          64.2758   91.2873   13.3438 C.ar    1  UNL1       -0.0118
     26 C          63.2509   90.8542   12.3378 C.ar    1  UNL1        0.0121
     27 N          62.3513   90.8516    9.9005 N.pl3   1  UNL1       -0.2187
     28 H          62.3161   91.2834    9.0165 H       1  UNL1        0.1734
     29 C          60.4083   88.6700   10.5827 C.3     1  UNL1        0.1996
     30 S          61.3799   89.7608   10.2416 S.O2    1  UNL1        0.0558
     31 O          60.3222   90.7885   10.5160 O.2     1  UNL1       -0.1544
     32 O          62.4374   88.7331    9.9672 O.2     1  UNL1       -0.1544
@<TRIPOS>BOND
     1    29    30    1
     2    30    31    2
     3    30    32    2
     4    30    27    1
     5    27    21    1
     6    21    22   ar
     7    22    23   ar
     8    23    24   ar
     9    24    25   ar
    10    25    20    1
    11    20     1    1
    12     1     2    2
    13     1     3   am
    14     3     5    1
    15     5     6   ar
    16     6     7   ar
    17     7    10    1
    18    10    11   ar
    19    11    12   ar
    20    12    13   ar
    21    13    14   ar
    22    14    15   ar
    23    15    16   ar
    24    16    17   ar
    25    17    18   ar
    26     7     8   ar
    27     8     9   ar
    28    25    26   ar
    29    26    21   ar
    30     9     5   ar
    31    18    10   ar
    32    18    13    1
    33    27    28    1
    34     3     4    1
    35    14    19    1
@<TRIPOS>MOLECULE
*****
 32 35 0 0 0
SMALL
GASTEIGER

@<TRIPOS>ATOM
      1 C          63.8853   89.0314   14.1058 C.2     1  UNL1        0.2320
      2 O          64.5301   87.7298   14.4801 O.2     1  UNL1       -0.2744
      3 N          62.9858   89.1055   12.9077 N.am    1  UNL1       -0.2639
      4 H          62.5626   89.9598   12.6620 H       1  UNL1        0.1567
      5 C          62.7310   87.8781   12.0841 C.ar    1  UNL1        0.1655
      6 N          63.2492   86.5001   12.3715 N.ar    1  UNL1       -0.2239
      7 C          62.7518   85.5835   11.2934 C.ar    1  UNL1        0.0913
      8 C          61.9261   86.3950   10.3395 C.ar    1  UNL1        0.0573
      9 S          61.9133   87.8131   10.8282 S.2     1  UNL1       -0.0508
     10 C          63.0310   84.1135   11.1876 C.ar    1  UNL1        0.0403
     11 C          63.6472   83.4155   10.0115 C.ar    1  UNL1        0.1021
     12 N          63.7400   81.9541   10.3364 N.ar    1  UNL1       -0.2269
     13 C          63.1811   81.7489   11.7132 C.ar    1  UNL1        0.1406
     14 N          63.0146   80.5192   12.5559 N.ar    1  UNL1       -0.3374
     15 C          62.4099   80.6241   13.9245 C.ar    1  UNL1        0.0735
     16 C          61.9717   81.9587   14.4506 C.ar    1  UNL1        0.0186
     17 C          62.1382   83.1884   13.6079 C.ar    1  UNL1        0.0046
     18 C          62.7429   83.0835   12.2393 C.ar    1  UNL1        0.0370
     19 H          63.3022   79.6432   12.2106 H       1  UNL1        0.1674
     20 C          64.1401   90.2588   14.9295 C.3     1  UNL1        0.1117
     21 C          65.6071   92.8844   12.3402 C.ar    1  UNL1        0.0641
     22 C          66.5449   93.6566   13.2201 C.ar    1  UNL1        0.0158
     23 C          66.6812   93.2962   14.6698 C.ar    1  UNL1        0.0010
     24 C          65.8796   92.1635   15.2396 C.ar    1  UNL1       -0.0037
     25 C          64.9417   91.3914   14.3597 C.ar    1  UNL1       -0.0118
     26 C          64.8054   91.7519   12.9100 C.ar    1  UNL1        0.0121
     27 N          65.4708   93.2448   10.8906 N.pl3   1  UNL1       -0.2187
     28 H          64.5972   93.1656   10.4437 H       1  UNL1        0.1734
     29 C          67.8605   94.2070    9.3531 C.3     1  UNL1        0.1996
     30 S          66.6656   93.7260   10.1218 S.O2    1  UNL1        0.0558
     31 O          67.2549   92.3475   10.1751 O.2     1  UNL1       -0.1544
     32 O          66.0764   95.1043   10.0686 O.2     1  UNL1       -0.1544
@<TRIPOS>BOND
     1    29    30    1
     2    30    31    2
     3    30    32    2
     4    30    27    1
     5    27    21    1
     6    21    22   ar
     7    22    23   ar
     8    23    24   ar
     9    24    25   ar
    10    25    20    1
    11    20     1    1
    12     1     2    2
    13     1     3   am
    14     3     5    1
    15     5     6   ar
    16     6     7   ar
    17     7    10    1
    18    10    11   ar
    19    11    12   ar
    20    12    13   ar
    21    13    14   ar
    22    14    15   ar
    23    15    16   ar
    24    16    17   ar
    25    17    18   ar
    26     7     8   ar
    27     8     9   ar
    28    25    26   ar
    29    26    21   ar
    30     9     5   ar
    31    18    10   ar
    32    18    13    1
    33    27    28    1
    34     3     4    1
    35    14    19    1
@<TRIPOS>MOLECULE
*****
 32 35 0 0 0
SMALL
GASTEIGER

@<TRIPOS>ATOM
      1 C          62.7517   89.9788   11.7364 C.2     1  UNL1        0.2320
      2 O          62.1731   89.6712   13.0857 O.2     1  UNL1       -0.2744
      3 N          62.9566   88.8770   10.7394 N.am    1  UNL1       -0.2639
      4 H          63.3363   89.0789    9.8538 H       1  UNL1        0.1567
      5 C          62.5829   87.4678   11.0916 C.ar    1  UNL1        0.1655
      6 N          63.0028   86.7265   12.3261 N.ar    1  UNL1       -0.2239
      7 C          62.4031   85.3529   12.2687 C.ar    1  UNL1        0.0913
      8 C          61.6125   85.2450   10.9986 C.ar    1  UNL1        0.0573
      9 S          61.7235   86.5521   10.2711 S.2     1  UNL1       -0.0508
     10 C          62.5655   84.2760   13.3002 C.ar    1  UNL1        0.0403
     11 C          62.6798   84.4839   14.7813 C.ar    1  UNL1        0.1021
     12 N          62.8270   83.1385   15.4282 N.ar    1  UNL1       -0.2269
     13 C          62.8038   82.0992   14.3468 C.ar    1  UNL1        0.1406
     14 N          62.9089   80.6036   14.3898 N.ar    1  UNL1       -0.3374
     15 C          62.8524   79.8109   13.1177 C.ar    1  UNL1        0.0735
     16 C          62.6908   80.5139   11.8025 C.ar    1  UNL1        0.0186
     17 C          62.5856   82.0096   11.7595 C.ar    1  UNL1        0.0046
     18 C          62.6422   82.8022   13.0317 C.ar    1  UNL1        0.0370
     19 H          63.0150   80.1422   15.2530 H       1  UNL1        0.1674
     20 C          63.1254   91.3882   11.3841 C.3     1  UNL1        0.1117
     21 C          66.2779   93.7562   11.8367 C.ar    1  UNL1        0.0641
     22 C          66.8446   93.2311   13.1224 C.ar    1  UNL1        0.0158
     23 C          66.1717   92.0917   13.8287 C.ar    1  UNL1        0.0010
     24 C          64.9319   91.4773   13.2492 C.ar    1  UNL1       -0.0037
     25 C          64.3652   92.0025   11.9635 C.ar    1  UNL1       -0.0118
     26 C          65.0382   93.1419   11.2572 C.ar    1  UNL1        0.0121
     27 N          66.9508   94.8956   11.1304 N.pl3   1  UNL1       -0.2187
     28 H          67.2375   95.6890   11.6380 H       1  UNL1        0.1734
     29 C          67.4230   94.7569    8.1710 C.3     1  UNL1        0.1996
     30 S          67.1869   94.8263    9.6507 S.O2    1  UNL1        0.0558
     31 O          68.2293   93.7694    9.8665 O.2     1  UNL1       -0.1544
     32 O          66.1445   95.8832    9.4348 O.2     1  UNL1       -0.1544
@<TRIPOS>BOND
     1    29    30    1
     2    30    31    2
     3    30    32    2
     4    30    27    1
     5    27    21    1
     6    21    22   ar
     7    22    23   ar
     8    23    24   ar
     9    24    25   ar
    10    25    20    1
    11    20     1    1
    12     1     2    2
    13     1     3   am
    14     3     5    1
    15     5     6   ar
    16     6     7   ar
    17     7    10    1
    18    10    11   ar
    19    11    12   ar
    20    12    13   ar
    21    13    14   ar
    22    14    15   ar
    23    15    16   ar
    24    16    17   ar
    25    17    18   ar
    26     7     8   ar
    27     8     9   ar
    28    25    26   ar
    29    26    21   ar
    30     9     5   ar
    31    18    10   ar
    32    18    13    1
    33    27    28    1
    34     3     4    1
    35    14    19    1
@<TRIPOS>MOLECULE
*****
 32 35 0 0 0
SMALL
GASTEIGER

@<TRIPOS>ATOM
      1 C          62.9679   89.4400   12.2866 C.2     1  UNL1        0.2320
      2 O          61.7382   88.6083   12.0716 O.2     1  UNL1       -0.2744
      3 N          64.0731   88.9316   13.1642 N.am    1  UNL1       -0.2639
      4 H          64.8802   89.4775   13.3053 H       1  UNL1        0.1567
      5 C          63.9487   87.5917   13.8266 C.ar    1  UNL1        0.1655
      6 N          63.4574   86.3306   13.1800 N.ar    1  UNL1       -0.2239
      7 C          63.4988   85.2370   14.2057 C.ar    1  UNL1        0.0913
      8 C          64.0158   85.8222   15.4865 C.ar    1  UNL1        0.0573
      9 S          64.2938   87.2774   15.2522 S.2     1  UNL1       -0.0508
     10 C          63.0943   83.8089   13.9889 C.ar    1  UNL1        0.0403
     11 C          62.4332   82.9170   14.9975 C.ar    1  UNL1        0.1021
     12 N          62.2103   81.5789   14.3573 N.ar    1  UNL1       -0.2269
     13 C          62.7336   81.6438   12.9531 C.ar    1  UNL1        0.1406
     14 N          62.7832   80.6261   11.8524 N.ar    1  UNL1       -0.3374
     15 C          63.3792   80.9866   10.5239 C.ar    1  UNL1        0.0735
     16 C          63.9256   82.3648   10.2962 C.ar    1  UNL1        0.0186
     17 C          63.8760   83.3826   11.3970 C.ar    1  UNL1        0.0046
     18 C          63.2800   83.0221   12.7254 C.ar    1  UNL1        0.0370
     19 H          62.4246   79.7215   12.0018 H       1  UNL1        0.1674
     20 C          63.0923   90.7800   11.6242 C.3     1  UNL1        0.1117
     21 C          65.8578   92.7955   13.6340 C.ar    1  UNL1        0.0641
     22 C          66.6379   93.4064   12.5079 C.ar    1  UNL1        0.0158
     23 C          66.2361   93.1419   11.0871 C.ar    1  UNL1        0.0010
     24 C          65.0542   92.2664   10.7925 C.ar    1  UNL1       -0.0037
     25 C          64.2741   91.6554   11.9188 C.ar    1  UNL1       -0.0118
     26 C          64.6760   91.9201   13.3395 C.ar    1  UNL1        0.0121
     27 N          66.2596   93.0601   15.0548 N.pl3   1  UNL1       -0.2187
     28 H          65.6095   93.4435   15.6870 H       1  UNL1        0.1734
     29 C          69.0441   92.4208   15.9701 C.3     1  UNL1        0.1996
     30 S          67.6518   92.7405   15.5124 S.O2    1  UNL1        0.0558
     31 O          67.4377   91.2989   15.1571 O.2     1  UNL1       -0.1544
     32 O          67.8660   94.1819   15.8678 O.2     1  UNL1       -0.1544
@<TRIPOS>BOND
     1    29    30    1
     2    30    31    2
     3    30    32    2
     4    30    27    1
     5    27    21    1
     6    21    22   ar
     7    22    23   ar
     8    23    24   ar
     9    24    25   ar
    10    25    20    1
    11    20     1    1
    12     1     2    2
    13     1     3   am
    14     3     5    1
    15     5     6   ar
    16     6     7   ar
    17     7    10    1
    18    10    11   ar
    19    11    12   ar
    20    12    13   ar
    21    13    14   ar
    22    14    15   ar
    23    15    16   ar
    24    16    17   ar
    25    17    18   ar
    26     7     8   ar
    27     8     9   ar
    28    25    26   ar
    29    26    21   ar
    30     9     5   ar
    31    18    10   ar
    32    18    13    1
    33    27    28    1
    34     3     4    1
    35    14    19    1
@<TRIPOS>MOLECULE
*****
 32 35 0 0 0
SMALL
GASTEIGER

@<TRIPOS>ATOM
      1 C          64.6245   85.9766   14.9064 C.2     1  UNL1        0.2320
      2 O          66.0263   86.4029   15.2273 O.2     1  UNL1       -0.2744
      3 N          63.5190   86.9902   14.8831 N.am    1  UNL1       -0.2639
      4 H          62.5990   86.7104   14.6725 H       1  UNL1        0.1567
      5 C          63.8154   88.4301   15.1808 C.ar    1  UNL1        0.1655
      6 N          64.7168   89.3275   14.3856 N.ar    1  UNL1       -0.2239
      7 C          64.7209   90.6775   15.0392 C.ar    1  UNL1        0.0913
      8 C          63.8221   90.6146   16.2385 C.ar    1  UNL1        0.0573
      9 S          63.2625   89.2257   16.3260 S.2     1  UNL1       -0.0508
     10 C          65.4890   91.8795   14.5752 C.ar    1  UNL1        0.0403
     11 C          66.3490   92.7609   15.4316 C.ar    1  UNL1        0.1021
     12 N          66.9234   93.8372   14.5589 N.ar    1  UNL1       -0.2269
     13 C          66.4184   93.6210   13.1631 C.ar    1  UNL1        0.1406
     14 N          66.6513   94.3695   11.8843 N.ar    1  UNL1       -0.3374
     15 C          65.9977   93.9081   10.6155 C.ar    1  UNL1        0.0735
     16 C          65.1111   92.6982   10.6256 C.ar    1  UNL1        0.0186
     17 C          64.8783   91.9496   11.9044 C.ar    1  UNL1        0.0046
     18 C          65.5319   92.4110   13.1732 C.ar    1  UNL1        0.0370
     19 H          67.2332   95.1636   11.8777 H       1  UNL1        0.1674
     20 C          64.3281   84.5366   14.6087 C.3     1  UNL1        0.1117
     21 C          62.5592   84.5128   11.0561 C.ar    1  UNL1        0.0641
     22 C          63.1756   83.2916   10.4407 C.ar    1  UNL1        0.0158
     23 C          64.1761   82.4853   11.2146 C.ar    1  UNL1        0.0010
     24 C          64.5602   82.9003   12.6040 C.ar    1  UNL1       -0.0037
     25 C          63.9439   84.1216   13.2194 C.ar    1  UNL1       -0.0118
     26 C          62.9434   84.9279   12.4454 C.ar    1  UNL1        0.0121
     27 N          61.5587   85.3191   10.2822 N.pl3   1  UNL1       -0.2187
     28 H          60.7786   84.8769    9.8760 H       1  UNL1        0.1734
     29 C          61.9352   88.2792    9.9720 C.3     1  UNL1        0.1996
     30 S          61.7470   86.7991   10.1271 S.O2    1  UNL1        0.0558
     31 O          62.6373   86.5619    8.9434 O.2     1  UNL1       -0.1544
     32 O          60.8566   87.0364   11.3107 O.2     1  UNL1       -0.1544
@<TRIPOS>BOND
     1    29    30    1
     2    30    31    2
     3    30    32    2
     4    30    27    1
     5    27    21    1
     6    21    22   ar
     7    22    23   ar
     8    23    24   ar
     9    24    25   ar
    10    25    20    1
    11    20     1    1
    12     1     2    2
    13     1     3   am
    14     3     5    1
    15     5     6   ar
    16     6     7   ar
    17     7    10    1
    18    10    11   ar
    19    11    12   ar
    20    12    13   ar
    21    13    14   ar
    22    14    15   ar
    23    15    16   ar
    24    16    17   ar
    25    17    18   ar
    26     7     8   ar
    27     8     9   ar
    28    25    26   ar
    29    26    21   ar
    30     9     5   ar
    31    18    10   ar
    32    18    13    1
    33    27    28    1
    34     3     4    1
    35    14    19    1
@<TRIPOS>MOLECULE
*****
 32 35 0 0 0
SMALL
GASTEIGER

@<TRIPOS>ATOM
      1 C          62.9737   89.9408   12.1338 C.2     1  UNL1        0.2320
      2 O          62.7801   89.4583   13.5409 O.2     1  UNL1       -0.2744
      3 N          62.8732   88.9761   10.9897 N.am    1  UNL1       -0.2639
      4 H          63.0002   89.2928   10.0662 H       1  UNL1        0.1567
      5 C          62.5791   87.5290   11.2524 C.ar    1  UNL1        0.1655
      6 N          62.9480   86.7647   12.4893 N.ar    1  UNL1       -0.2239
      7 C          62.4614   85.3553   12.3258 C.ar    1  UNL1        0.0913
      8 C          61.7916   85.2484   10.9879 C.ar    1  UNL1        0.0573
      9 S          61.8643   86.5918   10.3245 S.2     1  UNL1       -0.0508
     10 C          62.6171   84.2473   13.3248 C.ar    1  UNL1        0.0403
     11 C          62.7371   84.4105   14.8110 C.ar    1  UNL1        0.1021
     12 N          62.8743   83.0456   15.4177 N.ar    1  UNL1       -0.2269
     13 C          62.8392   82.0387   14.3063 C.ar    1  UNL1        0.1406
     14 N          62.9314   80.5416   14.3051 N.ar    1  UNL1       -0.3374
     15 C          62.8647   79.7871   13.0104 C.ar    1  UNL1        0.0735
     16 C          62.7057   80.5298   11.7169 C.ar    1  UNL1        0.0186
     17 C          62.6135   82.0270   11.7181 C.ar    1  UNL1        0.0046
     18 C          62.6802   82.7814   13.0129 C.ar    1  UNL1        0.0370
     19 H          63.0357   80.0541   15.1541 H       1  UNL1        0.1674
     20 C          63.2678   91.3881   11.8710 C.3     1  UNL1        0.1117
     21 C          66.9598   92.0694   13.1573 C.ar    1  UNL1        0.0641
     22 C          67.5082   92.8865   12.0252 C.ar    1  UNL1        0.0158
     23 C          66.6431   93.2041   10.8417 C.ar    1  UNL1        0.0010
     24 C          65.2296   92.7046   10.7903 C.ar    1  UNL1       -0.0037
     25 C          64.6812   91.8875   11.9225 C.ar    1  UNL1       -0.0118
     26 C          65.5464   91.5699   13.1060 C.ar    1  UNL1        0.0121
     27 N          67.8249   91.7518   14.3409 N.pl3   1  UNL1       -0.2187
     28 H          68.0286   90.8149   14.5645 H       1  UNL1        0.1734
     29 C          68.9344   93.9715   16.0268 C.3     1  UNL1        0.1996
     30 S          68.3797   92.8616   15.1838 S.O2    1  UNL1        0.0558
     31 O          67.0856   92.9349   15.9389 O.2     1  UNL1       -0.1544
     32 O          69.6737   92.7884   14.4287 O.2     1  UNL1       -0.1544
@<TRIPOS>BOND
     1    29    30    1
     2    30    31    2
     3    30    32    2
     4    30    27    1
     5    27    21    1
     6    21    22   ar
     7    22    23   ar
     8    23    24   ar
     9    24    25   ar
    10    25    20    1
    11    20     1    1
    12     1     2    2
    13     1     3   am
    14     3     5    1
    15     5     6   ar
    16     6     7   ar
    17     7    10    1
    18    10    11   ar
    19    11    12   ar
    20    12    13   ar
    21    13    14   ar
    22    14    15   ar
    23    15    16   ar
    24    16    17   ar
    25    17    18   ar
    26     7     8   ar
    27     8     9   ar
    28    25    26   ar
    29    26    21   ar
    30     9     5   ar
    31    18    10   ar
    32    18    13    1
    33    27    28    1
    34     3     4    1
    35    14    19    1
@<TRIPOS>MOLECULE
*****
 32 35 0 0 0
SMALL
GASTEIGER

@<TRIPOS>ATOM
      1 C          63.5944   89.4873   14.2964 C.2     1  UNL1        0.2320
      2 O          62.9040   88.9373   13.0837 O.2     1  UNL1       -0.2744
      3 N          64.0742   88.5585   15.3721 N.am    1  UNL1       -0.2639
      4 H          64.5273   88.9195   16.1681 H       1  UNL1        0.1567
      5 C          63.8635   87.0798   15.2351 C.ar    1  UNL1        0.1655
      6 N          64.0679   86.2718   13.9880 N.ar    1  UNL1       -0.2239
      7 C          63.7422   84.8420   14.3032 C.ar    1  UNL1        0.0913
      8 C          63.3365   84.7662   15.7454 C.ar    1  UNL1        0.0573
      9 S          63.4115   86.1492   16.3213 S.2     1  UNL1       -0.0508
     10 C          63.8102   83.6902   13.3448 C.ar    1  UNL1        0.0403
     11 C          64.6772   83.6096   12.1234 C.ar    1  UNL1        0.1021
     12 N          64.4259   82.2863   11.4632 N.ar    1  UNL1       -0.2269
     13 C          63.4036   81.5491   12.2766 C.ar    1  UNL1        0.1406
     14 N          62.7701   80.1999   12.1085 N.ar    1  UNL1       -0.3374
     15 C          61.7561   79.7184   13.1034 C.ar    1  UNL1        0.0735
     16 C          61.3756   80.5861   14.2663 C.ar    1  UNL1        0.0186
     17 C          62.0090   81.9353   14.4343 C.ar    1  UNL1        0.0046
     18 C          63.0231   82.4168   13.4394 C.ar    1  UNL1        0.0370
     19 H          63.0199   79.6304   11.3453 H       1  UNL1        0.1674
     20 C          63.8051   90.9661   14.4335 C.3     1  UNL1        0.1117
     21 C          66.3797   92.6734   11.9421 C.ar    1  UNL1        0.0641
     22 C          67.5645   92.8602   12.8429 C.ar    1  UNL1        0.0158
     23 C          67.4962   92.4157   14.2739 C.ar    1  UNL1        0.0010
     24 C          66.2430   91.7843   14.8041 C.ar    1  UNL1       -0.0037
     25 C          65.0582   91.5975   13.9033 C.ar    1  UNL1       -0.0118
     26 C          65.1266   92.0420   12.4722 C.ar    1  UNL1        0.0121
     27 N          66.4481   93.1179   10.5111 N.pl3   1  UNL1       -0.2187
     28 H          66.2867   92.4712    9.7866 H       1  UNL1        0.1734
     29 C          67.0762   95.9776    9.8571 C.3     1  UNL1        0.1996
     30 S          66.7622   94.5477   10.1841 S.O2    1  UNL1        0.0558
     31 O          65.3862   94.9508   10.6251 O.2     1  UNL1       -0.1544
     32 O          68.1381   94.1447    9.7431 O.2     1  UNL1       -0.1544
@<TRIPOS>BOND
     1    29    30    1
     2    30    31    2
     3    30    32    2
     4    30    27    1
     5    27    21    1
     6    21    22   ar
     7    22    23   ar
     8    23    24   ar
     9    24    25   ar
    10    25    20    1
    11    20     1    1
    12     1     2    2
    13     1     3   am
    14     3     5    1
    15     5     6   ar
    16     6     7   ar
    17     7    10    1
    18    10    11   ar
    19    11    12   ar
    20    12    13   ar
    21    13    14   ar
    22    14    15   ar
    23    15    16   ar
    24    16    17   ar
    25    17    18   ar
    26     7     8   ar
    27     8     9   ar
    28    25    26   ar
    29    26    21   ar
    30     9     5   ar
    31    18    10   ar
    32    18    13    1
    33    27    28    1
    34     3     4    1
    35    14    19    1
