@<TRIPOS>MOLECULE
*****
 45 48 0 0 0
SMALL
GASTEIGER

@<TRIPOS>ATOM
      1 N          61.5670   86.2775    9.4578 N.pl3   1  UNL1       -0.3043
      2 C          62.7411   85.6269    8.7882 C.3     1  UNL1        0.1123
      3 C          63.5945   84.6554    9.5484 C.3     1  UNL1        0.1149
      4 N          63.2738   84.3345   10.9782 N.am    1  UNL1       -0.2747
      5 C          64.1272   83.3630   11.7384 C.2     1  UNL1        0.2442
      6 O          65.3013   82.7124   11.0688 O.2     1  UNL1       -0.2731
      7 C          62.0997   84.9851   11.6478 C.3     1  UNL1        0.1149
      8 C          61.2463   85.9566   10.8875 C.3     1  UNL1        0.1123
      9 C          60.6745   88.6919    9.1055 C.ar    1  UNL1        0.0076
     10 C          59.8211   89.6633    8.3453 C.ar    1  UNL1        0.0279
     11 C          59.0069   89.1919    7.1771 C.ar    1  UNL1        0.1400
     12 F          58.1535   90.1634    6.4168 F       1  UNL1       -0.2042
     13 C          59.0460   87.7490    6.7691 C.ar    1  UNL1        0.0309
     14 C          59.8994   86.7776    7.5293 C.ar    1  UNL1        0.0165
     15 C          60.7136   87.2490    8.6975 C.ar    1  UNL1        0.0453
     16 C          61.4887   89.1633   10.2738 C.3     1  UNL1        0.0781
     17 N          62.8524   89.7468   10.0508 N.3     1  UNL1       -0.2939
     18 H          63.5222   89.0938   10.4577 H       1  UNL1        0.1235
     19 C          63.1856   91.1042   10.5953 C.3     1  UNL1        0.0863
     20 C          63.8988   91.2311   11.9088 C.3     1  UNL1        0.0894
     21 N          65.1399   92.0674   12.0107 N.3     1  UNL1       -0.2715
     22 C          67.1388   92.6150   10.4441 C.3     1  UNL1        0.0188
     23 C          65.6860   92.7505   10.7921 C.3     1  UNL1        0.0722
     24 C          65.8347   92.2206   13.3312 C.3     1  UNL1        0.0722
     25 C          65.5905   91.2259   14.4271 C.3     1  UNL1        0.0188
     26 C          60.9392   89.0513   11.6650 C.3     1  UNL1        0.0203
     27 C          59.6033   89.6488   11.9940 C.3     1  UNL1        0.0017
     28 C          59.2586   91.0267   11.5116 C.3     1  UNL1        0.0001
     29 C          58.6120   88.8685   12.8055 C.3     1  UNL1        0.0001
     30 C          63.8065   83.0421   13.1681 C.3     1  UNL1        0.1564
     31 N          62.6814   82.1045   13.4922 N.am    1  UNL1       -0.2727
     32 C          61.6329   82.3157   14.5438 C.3     1  UNL1        0.0943
     33 C          60.7107   81.1328   14.5231 C.3     1  UNL1        0.0311
     34 C          61.1893   80.1905   13.4586 C.3     1  UNL1        0.0870
     35 C          62.4073   80.7910   12.8214 C.2     1  UNL1        0.2260
     36 O          63.2101   80.1847   11.7090 O.2     1  UNL1       -0.2749
     37 C          64.6110   83.6588   14.2739 C.3     1  UNL1        0.0564
     38 C          64.2439   85.0137   14.8026 C.ar    1  UNL1       -0.0094
     39 C          64.7221   86.2486   14.0979 C.ar    1  UNL1       -0.0025
     40 C          64.3550   87.6034   14.6266 C.ar    1  UNL1        0.0111
     41 C          63.5099   87.7235   15.8601 C.ar    1  UNL1        0.0585
     42 CL         63.1429   89.0783   16.3889 Cl      1  UNL1       -0.0822
     43 C          63.0318   86.4886   16.5648 C.ar    1  UNL1        0.0225
     44 C          63.3989   85.1337   16.0360 C.ar    1  UNL1        0.0546
     45 CL         62.9208   83.8989   16.7407 Cl      1  UNL1       -0.0825
@<TRIPOS>BOND
     1    22    23    1
     2    23    21    1
     3    21    24    1
     4    24    25    1
     5    21    20    1
     6    20    19    1
     7    19    17    1
     8    17    16    1
     9    16    26    1
    10    26    27    1
    11    27    28    1
    12    27    29    1
    13    16     9    1
    14     9    10   ar
    15    10    11   ar
    16    11    12    1
    17    11    13   ar
    18    13    14   ar
    19    14    15   ar
    20    15     1    1
    21     1     2    1
    22     2     3    1
    23     3     4    1
    24     4     5   am
    25     5     6    2
    26     5    30    1
    27    30    37    1
    28    37    38    1
    29    38    39   ar
    30    39    40   ar
    31    40    41   ar
    32    41    42    1
    33    41    43   ar
    34    43    44   ar
    35    44    45    1
    36    30    31    1
    37    31    32    1
    38    32    33    1
    39    33    34    1
    40    34    35    1
    41    35    36    2
    42     4     7    1
    43     7     8    1
    44    15     9   ar
    45     8     1    1
    46    44    38   ar
    47    35    31   am
    48    17    18    1
@<TRIPOS>MOLECULE
*****
 45 48 0 0 0
SMALL
GASTEIGER

@<TRIPOS>ATOM
      1 N          63.3234   85.6909   14.5905 N.pl3   1  UNL1       -0.3043
      2 C          62.8214   86.1914   15.9124 C.3     1  UNL1        0.1123
      3 C          63.0272   87.6263   16.2983 C.3     1  UNL1        0.1149
      4 N          63.7349   88.5606   15.3622 N.am    1  UNL1       -0.2747
      5 C          63.9407   89.9954   15.7480 C.2     1  UNL1        0.2442
      6 O          63.4387   90.4960   17.0699 O.2     1  UNL1       -0.2731
      7 C          64.2369   88.0600   14.0403 C.3     1  UNL1        0.1149
      8 C          64.0311   86.6251   13.6544 C.3     1  UNL1        0.1123
      9 C          62.7100   83.9070   12.8040 C.ar    1  UNL1        0.0076
     10 C          62.5043   82.4722   12.4182 C.ar    1  UNL1        0.0279
     11 C          62.7061   81.3863   13.4332 C.ar    1  UNL1        0.1400
     12 F          62.5003   79.9514   13.0473 F       1  UNL1       -0.2042
     13 C          63.1137   81.7353   14.8339 C.ar    1  UNL1        0.0309
     14 C          63.3194   83.1701   15.2196 C.ar    1  UNL1        0.0165
     15 C          63.1176   84.2560   14.2047 C.ar    1  UNL1        0.0453
     16 C          62.5082   84.9929   11.7890 C.3     1  UNL1        0.0781
     17 N          61.2961   85.8733   11.8635 N.3     1  UNL1       -0.2939
     18 H          60.5163   85.2777   12.1421 H       1  UNL1        0.1235
     19 C          60.8474   86.6358   10.6522 C.3     1  UNL1        0.0863
     20 C          61.3775   88.0154   10.3956 C.3     1  UNL1        0.0894
     21 N          60.4717   89.0763    9.8441 N.3     1  UNL1       -0.2715
     22 C          59.2993   87.9038    7.8439 C.3     1  UNL1        0.0188
     23 C          60.0877   89.0551    8.3942 C.3     1  UNL1        0.0722
     24 C          59.9500   90.1584   10.7424 C.3     1  UNL1        0.0722
     25 C          59.4047   89.8114   12.0960 C.3     1  UNL1        0.0188
     26 C          63.5185   85.1984   10.6995 C.3     1  UNL1        0.0203
     27 C          63.5296   84.2901    9.5059 C.3     1  UNL1        0.0017
     28 C          64.1037   82.9089    9.6197 C.3     1  UNL1        0.0001
     29 C          62.9667   84.7629    8.1984 C.3     1  UNL1        0.0001
     30 C          64.6484   90.9297   14.8119 C.3     1  UNL1        0.1564
     31 N          65.9539   91.5486   15.2149 N.am    1  UNL1       -0.2727
     32 C          67.2972   91.2359   14.6252 C.3     1  UNL1        0.0943
     33 C          68.3189   92.0830   15.3242 C.3     1  UNL1        0.0311
     34 C          67.6071   92.9193   16.3459 C.3     1  UNL1        0.0870
     35 C          66.1454   92.5891   16.2784 C.2     1  UNL1        0.2260
     36 O          65.0650   93.1931   17.1256 O.2     1  UNL1       -0.2749
     37 C          64.0505   91.2450   13.4728 C.3     1  UNL1        0.0564
     38 C          64.7722   92.1568   12.5252 C.ar    1  UNL1       -0.0094
     39 C          65.7006   93.2082   13.0568 C.ar    1  UNL1       -0.0025
     40 C          66.4223   94.1200   12.1092 C.ar    1  UNL1        0.0111
     41 C          66.2155   93.9803   10.6301 C.ar    1  UNL1        0.0585
     42 CL         66.9371   94.8920    9.6825 Cl      1  UNL1       -0.0822
     43 C          65.2871   92.9288   10.0986 C.ar    1  UNL1        0.0225
     44 C          64.5654   92.0171   11.0462 C.ar    1  UNL1        0.0546
     45 CL         63.6370   90.9657   10.5147 Cl      1  UNL1       -0.0825
@<TRIPOS>BOND
     1    22    23    1
     2    23    21    1
     3    21    24    1
     4    24    25    1
     5    21    20    1
     6    20    19    1
     7    19    17    1
     8    17    16    1
     9    16    26    1
    10    26    27    1
    11    27    28    1
    12    27    29    1
    13    16     9    1
    14     9    10   ar
    15    10    11   ar
    16    11    12    1
    17    11    13   ar
    18    13    14   ar
    19    14    15   ar
    20    15     1    1
    21     1     2    1
    22     2     3    1
    23     3     4    1
    24     4     5   am
    25     5     6    2
    26     5    30    1
    27    30    37    1
    28    37    38    1
    29    38    39   ar
    30    39    40   ar
    31    40    41   ar
    32    41    42    1
    33    41    43   ar
    34    43    44   ar
    35    44    45    1
    36    30    31    1
    37    31    32    1
    38    32    33    1
    39    33    34    1
    40    34    35    1
    41    35    36    2
    42     4     7    1
    43     7     8    1
    44    15     9   ar
    45     8     1    1
    46    44    38   ar
    47    35    31   am
    48    17    18    1
@<TRIPOS>MOLECULE
*****
 45 48 0 0 0
SMALL
GASTEIGER

@<TRIPOS>ATOM
      1 N          62.0726   89.4934   11.1673 N.pl3   1  UNL1       -0.3043
      2 C          61.7091   89.4392   12.6216 C.3     1  UNL1        0.1123
      3 C          62.5268   90.1935   13.6277 C.3     1  UNL1        0.1149
      4 N          63.7081   91.0021   13.1796 N.am    1  UNL1       -0.2747
      5 C          64.5258   91.7564   14.1857 C.2     1  UNL1        0.2442
      6 O          64.1623   91.7021   15.6399 O.2     1  UNL1       -0.2731
      7 C          64.0717   91.0563   11.7253 C.3     1  UNL1        0.1149
      8 C          63.2539   90.3019   10.7191 C.3     1  UNL1        0.1123
      9 C          61.2841   87.2395   10.1435 C.ar    1  UNL1        0.0076
     10 C          60.4664   86.4852    9.1374 C.ar    1  UNL1        0.0279
     11 C          59.6193   87.2305    8.1489 C.ar    1  UNL1        0.1400
     12 F          58.8015   86.4761    7.1428 F       1  UNL1       -0.2042
     13 C          59.5900   88.7301    8.1666 C.ar    1  UNL1        0.0309
     14 C          60.4078   89.4843    9.1727 C.ar    1  UNL1        0.0165
     15 C          61.2548   88.7390   10.1611 C.ar    1  UNL1        0.0453
     16 C          62.1312   86.4942   11.1319 C.3     1  UNL1        0.0781
     17 N          62.8834   87.2441   12.1910 N.3     1  UNL1       -0.2939
     18 H          63.4146   87.9730   11.7146 H       1  UNL1        0.1235
     19 C          63.8470   86.5186   13.0826 C.3     1  UNL1        0.0863
     20 C          64.1753   87.0702   14.4384 C.3     1  UNL1        0.0894
     21 N          63.6304   86.4086   15.6693 N.3     1  UNL1       -0.2715
     22 C          62.5961   86.5818   18.0464 C.3     1  UNL1        0.0188
     23 C          63.1488   87.2433   16.8188 C.3     1  UNL1        0.0722
     24 C          63.5671   84.9121   15.7508 C.3     1  UNL1        0.0722
     25 C          62.3579   84.1838   15.2434 C.3     1  UNL1        0.0188
     26 C          62.2260   84.9989   11.0613 C.3     1  UNL1        0.0203
     27 C          63.2929   84.3535   10.2275 C.3     1  UNL1        0.0017
     28 C          64.2491   83.3821   10.8537 C.3     1  UNL1        0.0001
     29 C          63.4036   84.6796    8.7676 C.3     1  UNL1        0.0001
     30 C          65.7071   92.5649   13.7375 C.3     1  UNL1        0.1564
     31 N          67.0170   92.4419   14.4580 N.am    1  UNL1       -0.2727
     32 C          68.3348   92.0849   13.8368 C.3     1  UNL1        0.0943
     33 C          69.3713   92.0767   14.9211 C.3     1  UNL1        0.0311
     34 C          68.6941   92.4286   16.2124 C.3     1  UNL1        0.0870
     35 C          67.2390   92.6543   15.9263 C.2     1  UNL1        0.2260
     36 O          66.1902   93.0269   16.9317 O.2     1  UNL1       -0.2749
     37 C          65.5785   93.4964   12.5689 C.3     1  UNL1        0.0564
     38 C          66.4714   93.3298   11.3752 C.ar    1  UNL1       -0.0094
     39 C          67.1970   92.0353   11.1562 C.ar    1  UNL1       -0.0025
     40 C          68.0900   91.8687    9.9625 C.ar    1  UNL1        0.0111
     41 C          68.2573   92.9966    8.9878 C.ar    1  UNL1        0.0585
     42 CL         69.1503   92.8299    7.7941 Cl      1  UNL1       -0.0822
     43 C          67.5317   94.2910    9.2068 C.ar    1  UNL1        0.0225
     44 C          66.6388   94.4576   10.4005 C.ar    1  UNL1        0.0546
     45 CL         65.9132   95.7520   10.6195 Cl      1  UNL1       -0.0825
@<TRIPOS>BOND
     1    22    23    1
     2    23    21    1
     3    21    24    1
     4    24    25    1
     5    21    20    1
     6    20    19    1
     7    19    17    1
     8    17    16    1
     9    16    26    1
    10    26    27    1
    11    27    28    1
    12    27    29    1
    13    16     9    1
    14     9    10   ar
    15    10    11   ar
    16    11    12    1
    17    11    13   ar
    18    13    14   ar
    19    14    15   ar
    20    15     1    1
    21     1     2    1
    22     2     3    1
    23     3     4    1
    24     4     5   am
    25     5     6    2
    26     5    30    1
    27    30    37    1
    28    37    38    1
    29    38    39   ar
    30    39    40   ar
    31    40    41   ar
    32    41    42    1
    33    41    43   ar
    34    43    44   ar
    35    44    45    1
    36    30    31    1
    37    31    32    1
    38    32    33    1
    39    33    34    1
    40    34    35    1
    41    35    36    2
    42     4     7    1
    43     7     8    1
    44    15     9   ar
    45     8     1    1
    46    44    38   ar
    47    35    31   am
    48    17    18    1
@<TRIPOS>MOLECULE
*****
 45 48 0 0 0
SMALL
GASTEIGER

@<TRIPOS>ATOM
      1 N          62.3295   89.1427   11.0065 N.pl3   1  UNL1       -0.3043
      2 C          62.4320   88.6009   12.4015 C.3     1  UNL1        0.1123
      3 C          63.3300   89.2677   13.4009 C.3     1  UNL1        0.1149
      4 N          64.1256   90.4763   13.0054 N.am    1  UNL1       -0.2747
      5 C          65.0236   91.1431   14.0048 C.2     1  UNL1        0.2442
      6 O          65.1261   90.6013   15.3998 O.2     1  UNL1       -0.2731
      7 C          64.0232   91.0180   11.6104 C.3     1  UNL1        0.1149
      8 C          63.1251   90.3512   10.6110 C.3     1  UNL1        0.1123
      9 C          61.3795   86.9789    9.9269 C.ar    1  UNL1        0.0076
     10 C          60.4814   86.3121    8.9275 C.ar    1  UNL1        0.0279
     11 C          59.6353   87.1423    8.0082 C.ar    1  UNL1        0.1400
     12 F          58.7372   86.4754    7.0088 F       1  UNL1       -0.2042
     13 C          59.6873   88.6392    8.0884 C.ar    1  UNL1        0.0309
     14 C          60.5853   89.3060    9.0878 C.ar    1  UNL1        0.0165
     15 C          61.4314   88.4758   10.0071 C.ar    1  UNL1        0.0453
     16 C          62.2256   86.1487   10.8461 C.3     1  UNL1        0.0781
     17 N          63.4479   85.4567   10.3199 N.3     1  UNL1       -0.2939
     18 H          63.8220   86.0452    9.5755 H       1  UNL1        0.1235
     19 C          63.3420   84.0682    9.7622 C.3     1  UNL1        0.0863
     20 C          64.2948   83.0026   10.2171 C.3     1  UNL1        0.0894
     21 N          63.8517   81.9786   11.2197 N.3     1  UNL1       -0.2715
     22 C          62.9933   79.9166    9.8926 C.3     1  UNL1        0.0188
     23 C          62.7487   81.0217   10.8769 C.3     1  UNL1        0.0722
     24 C          64.5117   81.9116   12.5650 C.3     1  UNL1        0.0722
     25 C          63.9042   81.0831   13.6580 C.3     1  UNL1        0.0188
     26 C          61.8494   86.0107   12.2915 C.3     1  UNL1        0.0203
     27 C          62.6614   85.1331   13.1974 C.3     1  UNL1        0.0017
     28 C          64.0669   85.5183   13.5526 C.3     1  UNL1        0.0001
     29 C          62.0679   83.8703   13.7479 C.3     1  UNL1        0.0001
     30 C          65.8192   92.3516   13.6093 C.3     1  UNL1        0.1564
     31 N          67.0917   92.6813   14.3318 N.am    1  UNL1       -0.2727
     32 C          67.2050   93.4689   15.6033 C.3     1  UNL1        0.0943
     33 C          68.6577   93.5556   15.9670 C.3     1  UNL1        0.0311
     34 C          69.4422   92.8216   14.9202 C.3     1  UNL1        0.0870
     35 C          68.4744   92.2812   13.9095 C.2     1  UNL1        0.2260
     36 O          68.8273   91.4813   12.6908 O.2     1  UNL1       -0.2749
     37 C          65.3423   93.2305   12.4911 C.3     1  UNL1        0.0564
     38 C          66.1975   93.4268   11.2746 C.ar    1  UNL1       -0.0094
     39 C          66.8287   92.2436   10.6026 C.ar    1  UNL1       -0.0025
     40 C          67.6839   92.4399    9.3860 C.ar    1  UNL1        0.0111
     41 C          67.9079   93.8196    8.8414 C.ar    1  UNL1        0.0585
     42 CL         68.7631   94.0159    7.6248 Cl      1  UNL1       -0.0822
     43 C          67.2766   95.0028    9.5134 C.ar    1  UNL1        0.0225
     44 C          66.4214   94.8064   10.7299 C.ar    1  UNL1        0.0546
     45 CL         65.7902   95.9896   11.4019 Cl      1  UNL1       -0.0825
@<TRIPOS>BOND
     1    22    23    1
     2    23    21    1
     3    21    24    1
     4    24    25    1
     5    21    20    1
     6    20    19    1
     7    19    17    1
     8    17    16    1
     9    16    26    1
    10    26    27    1
    11    27    28    1
    12    27    29    1
    13    16     9    1
    14     9    10   ar
    15    10    11   ar
    16    11    12    1
    17    11    13   ar
    18    13    14   ar
    19    14    15   ar
    20    15     1    1
    21     1     2    1
    22     2     3    1
    23     3     4    1
    24     4     5   am
    25     5     6    2
    26     5    30    1
    27    30    37    1
    28    37    38    1
    29    38    39   ar
    30    39    40   ar
    31    40    41   ar
    32    41    42    1
    33    41    43   ar
    34    43    44   ar
    35    44    45    1
    36    30    31    1
    37    31    32    1
    38    32    33    1
    39    33    34    1
    40    34    35    1
    41    35    36    2
    42     4     7    1
    43     7     8    1
    44    15     9   ar
    45     8     1    1
    46    44    38   ar
    47    35    31   am
    48    17    18    1
@<TRIPOS>MOLECULE
*****
 45 48 0 0 0
SMALL
GASTEIGER

@<TRIPOS>ATOM
      1 N          63.4436   86.6029   14.8416 N.pl3   1  UNL1       -0.3043
      2 C          62.7589   87.4323   15.8871 C.3     1  UNL1        0.1123
      3 C          63.0647   88.8963   16.0019 C.3     1  UNL1        0.1149
      4 N          64.0553   89.5309   15.0712 N.am    1  UNL1       -0.2747
      5 C          64.3611   90.9948   15.1861 C.2     1  UNL1        0.2442
      6 O          63.6764   91.8243   16.2316 O.2     1  UNL1       -0.2731
      7 C          64.7400   88.7014   14.0257 C.3     1  UNL1        0.1149
      8 C          64.4342   87.2374   13.9109 C.3     1  UNL1        0.1123
      9 C          62.7296   84.5593   13.4048 C.ar    1  UNL1        0.0076
     10 C          62.4237   83.0954   13.2901 C.ar    1  UNL1        0.0279
     11 C          62.5261   82.2109   14.4972 C.ar    1  UNL1        0.1400
     12 F          62.2202   80.7469   14.3824 F       1  UNL1       -0.2042
     13 C          62.9343   82.7904   15.8191 C.ar    1  UNL1        0.0309
     14 C          63.2401   84.2544   15.9339 C.ar    1  UNL1        0.0165
     15 C          63.1378   85.1388   14.7267 C.ar    1  UNL1        0.0453
     16 C          62.6272   85.4438   12.1977 C.3     1  UNL1        0.0781
     17 N          61.4716   86.3897   12.0567 N.3     1  UNL1       -0.2939
     18 H          60.6814   85.9632   12.5406 H       1  UNL1        0.1235
     19 C          60.9846   86.7808   10.6930 C.3     1  UNL1        0.0863
     20 C          59.9830   87.8874   10.5431 C.3     1  UNL1        0.0894
     21 N          60.4485   89.2929   10.3031 N.3     1  UNL1       -0.2715
     22 C          59.1930   90.9998   11.8065 C.3     1  UNL1        0.0188
     23 C          59.4884   90.4361   10.4482 C.3     1  UNL1        0.0722
     24 C          61.8744   89.5553    9.9181 C.3     1  UNL1        0.0722
     25 C          62.8942   89.8544   10.9766 C.3     1  UNL1        0.0188
     26 C          63.6805   85.3824   11.1314 C.3     1  UNL1        0.0203
     27 C          63.5652   84.3816   10.0201 C.3     1  UNL1        0.0017
     28 C          64.0113   82.9658   10.2366 C.3     1  UNL1        0.0001
     29 C          63.0040   84.7964    8.6924 C.3     1  UNL1        0.0001
     30 C          65.3517   91.6293   14.2554 C.3     1  UNL1        0.1564
     31 N          66.7100   92.0194   14.7582 N.am    1  UNL1       -0.2727
     32 C          67.0165   92.6094   16.1028 C.3     1  UNL1        0.0943
     33 C          68.4962   92.8427   16.1803 C.3     1  UNL1        0.0311
     34 C          69.1042   92.3969   14.8836 C.3     1  UNL1        0.0870
     35 C          68.0003   91.8881   14.0046 C.2     1  UNL1        0.2260
     36 O          68.1589   91.3436   12.6160 O.2     1  UNL1       -0.2749
     37 C          64.9839   91.8737   12.8218 C.3     1  UNL1        0.0564
     38 C          65.5344   93.0675   12.0994 C.ar    1  UNL1       -0.0094
     39 C          65.8706   94.3155   12.8606 C.ar    1  UNL1       -0.0025
     40 C          66.4211   95.5093   12.1381 C.ar    1  UNL1        0.0111
     41 C          66.6355   95.4549   10.6545 C.ar    1  UNL1        0.0585
     42 CL         67.1860   96.6487    9.9320 Cl      1  UNL1       -0.0822
     43 C          66.2993   94.2069    9.8933 C.ar    1  UNL1        0.0225
     44 C          65.7488   93.0132   10.6158 C.ar    1  UNL1        0.0546
     45 CL         65.4126   91.7652    9.8546 Cl      1  UNL1       -0.0825
@<TRIPOS>BOND
     1    22    23    1
     2    23    21    1
     3    21    24    1
     4    24    25    1
     5    21    20    1
     6    20    19    1
     7    19    17    1
     8    17    16    1
     9    16    26    1
    10    26    27    1
    11    27    28    1
    12    27    29    1
    13    16     9    1
    14     9    10   ar
    15    10    11   ar
    16    11    12    1
    17    11    13   ar
    18    13    14   ar
    19    14    15   ar
    20    15     1    1
    21     1     2    1
    22     2     3    1
    23     3     4    1
    24     4     5   am
    25     5     6    2
    26     5    30    1
    27    30    37    1
    28    37    38    1
    29    38    39   ar
    30    39    40   ar
    31    40    41   ar
    32    41    42    1
    33    41    43   ar
    34    43    44   ar
    35    44    45    1
    36    30    31    1
    37    31    32    1
    38    32    33    1
    39    33    34    1
    40    34    35    1
    41    35    36    2
    42     4     7    1
    43     7     8    1
    44    15     9   ar
    45     8     1    1
    46    44    38   ar
    47    35    31   am
    48    17    18    1
