@<TRIPOS>MOLECULE
*****
 38 41 0 0 0
SMALL
GASTEIGER

@<TRIPOS>ATOM
      1 C          62.1422   89.4917   11.1480 C.2     1  UNL1        0.2456
      2 O          61.2743   90.1075   12.2051 O.2     1  UNL1       -0.2702
      3 N          63.2664   90.2820   10.5464 N.am    1  UNL1       -0.3005
      4 H          63.8360   89.8778    9.8526 H       1  UNL1        0.1497
      5 C          63.3329   87.1866   12.6543 C.3     1  UNL1        0.0328
      6 C          62.4814   86.9332   11.4456 C.ar    1  UNL1        0.0002
      7 C          62.2253   85.5271   10.9901 C.ar    1  UNL1        0.0774
      8 N          61.3738   85.2736    9.7816 N.ar    1  UNL1       -0.2457
      9 C          60.7784   86.4262    9.0284 C.ar    1  UNL1        0.0814
     10 C          59.9270   86.1727    7.8198 C.ar    1  UNL1        0.0196
     11 C          59.3317   87.3253    7.0667 C.ar    1  UNL1        0.0082
     12 C          59.5878   88.7313    7.5222 C.ar    1  UNL1        0.0347
     13 BR         58.9924   89.8839    6.7691 Br      1  UNL1       -0.0490
     14 C          60.4392   88.9848    8.7308 C.ar    1  UNL1        0.0083
     15 C          61.0346   87.8323    9.4839 C.ar    1  UNL1        0.0222
     16 C          61.8861   88.0857   10.6925 C.ar    1  UNL1        0.0523
     17 C          62.8206   84.3746   11.7433 C.ar    1  UNL1        0.0173
     18 C          62.4443   84.1405   13.1763 C.ar    1  UNL1        0.0015
     19 C          63.0397   82.9879   13.9294 C.ar    1  UNL1        0.0000
     20 C          64.0114   82.0695   13.2494 C.ar    1  UNL1        0.0000
     21 C          64.3877   82.3036   11.8165 C.ar    1  UNL1        0.0000
     22 C          63.7924   83.4561   11.0634 C.ar    1  UNL1        0.0015
     23 C          63.5225   91.6880   11.0019 C.3     1  UNL1        0.0941
     24 C          64.9236   92.1398   11.2894 C.3     1  UNL1        0.0454
     25 C          65.4216   92.1855   12.7035 C.ar    1  UNL1        0.0194
     26 C          65.1740   91.0272   13.6238 C.ar    1  UNL1        0.1371
     27 F          64.4284   89.8230   13.1298 F       1  UNL1       -0.2045
     28 C          65.6720   91.0730   15.0380 C.ar    1  UNL1        0.0317
     29 C          66.4176   92.2771   15.5319 C.ar    1  UNL1        0.0328
     30 C          66.6652   93.4355   14.6117 C.ar    1  UNL1        0.1504
     31 F          67.4108   94.6398   15.1057 F       1  UNL1       -0.2033
     32 C          66.1672   93.3898   13.1975 C.ar    1  UNL1        0.0833
     33 CL         66.4149   94.5482   12.2773 Cl      1  UNL1       -0.0802
     34 C          65.8268   92.5457   10.1627 C.3     1  UNL1        0.0121
     35 C          67.2611   92.1068   10.1558 C.3     1  UNL1        0.0421
     36 C          68.2525   92.7973    9.2668 C.2     1  UNL1        0.0503
     37 O          68.6294   94.2250    9.5306 O.co2   1  UNL1       -0.5492
     38 O          68.8670   92.0601    8.1139 O.co2   1  UNL1       -0.5492
@<TRIPOS>UNITY_ATOM_ATTR
37 1
charge -1
@<TRIPOS>BOND
     1     5     6    1
     2     6     7   ar
     3     7    17    1
     4    17    18   ar
     5    18    19   ar
     6    19    20   ar
     7    20    21   ar
     8    21    22   ar
     9     7     8   ar
    10     8     9   ar
    11     9    10   ar
    12    10    11   ar
    13    11    12   ar
    14    12    13    1
    15    12    14   ar
    16    14    15   ar
    17    15    16   ar
    18    16     1    1
    19     1     2    2
    20     1     3   am
    21     3    23    1
    22    23    24    1
    23    24    34    1
    24    34    35    1
    25    35    36    1
    26    36    37   ar
    27    36    38   ar
    28    24    25    1
    29    25    26   ar
    30    26    27    1
    31    26    28   ar
    32    28    29   ar
    33    29    30   ar
    34    30    31    1
    35    30    32   ar
    36    32    33    1
    37    16     6   ar
    38    32    25   ar
    39    22    17   ar
    40    15     9   ar
    41     3     4    1
@<TRIPOS>MOLECULE
*****
 38 41 0 0 0
SMALL
GASTEIGER

@<TRIPOS>ATOM
      1 C          62.3374   90.0089   10.8821 C.2     1  UNL1        0.2456
      2 O          61.3636   90.9093   11.5828 O.2     1  UNL1       -0.2702
      3 N          63.6309   90.5628   10.3623 N.am    1  UNL1       -0.3005
      4 H          64.2700   89.9719    9.9024 H       1  UNL1        0.1497
      5 C          63.4933   87.9742   12.7592 C.3     1  UNL1        0.0328
      6 C          62.5957   87.5372   11.6397 C.ar    1  UNL1        0.0002
      7 C          62.2760   86.0829   11.4587 C.ar    1  UNL1        0.0774
      8 N          61.3784   85.6459   10.3393 N.ar    1  UNL1       -0.2457
      9 C          60.8004   86.6633    9.4006 C.ar    1  UNL1        0.0814
     10 C          59.9028   86.2263    8.2811 C.ar    1  UNL1        0.0196
     11 C          59.3248   87.2437    7.3426 C.ar    1  UNL1        0.0082
     12 C          59.6445   88.6980    7.5235 C.ar    1  UNL1        0.0347
     13 BR         59.0665   89.7154    6.5849 Br      1  UNL1       -0.0490
     14 C          60.5421   89.1350    8.6430 C.ar    1  UNL1        0.0083
     15 C          61.1201   88.1176    9.5816 C.ar    1  UNL1        0.0222
     16 C          62.0177   88.5546   10.7011 C.ar    1  UNL1        0.0523
     17 C          62.8540   85.0655   12.3974 C.ar    1  UNL1        0.0173
     18 C          63.8621   84.0728   11.8992 C.ar    1  UNL1        0.0015
     19 C          64.4400   83.0555   12.8378 C.ar    1  UNL1        0.0000
     20 C          64.0099   83.0309   14.2746 C.ar    1  UNL1        0.0000
     21 C          63.0019   84.0237   14.7728 C.ar    1  UNL1        0.0000
     22 C          62.4239   85.0410   13.8342 C.ar    1  UNL1        0.0015
     23 C          63.9506   92.0172   10.5432 C.3     1  UNL1        0.0941
     24 C          65.2398   92.4267   11.1913 C.3     1  UNL1        0.0454
     25 C          66.2882   93.1403   10.3904 C.ar    1  UNL1        0.0194
     26 C          67.4442   92.3753    9.8173 C.ar    1  UNL1        0.1371
     27 F          67.5517   90.8966   10.0451 F       1  UNL1       -0.2045
     28 C          68.4927   93.0890    9.0164 C.ar    1  UNL1        0.0317
     29 C          68.3852   94.5676    8.7886 C.ar    1  UNL1        0.0328
     30 C          67.2292   95.3327    9.3617 C.ar    1  UNL1        0.1504
     31 F          67.1217   96.8115    9.1339 F       1  UNL1       -0.2033
     32 C          66.1808   94.6191   10.1626 C.ar    1  UNL1        0.0833
     33 CL         65.0248   95.3841   10.7357 Cl      1  UNL1       -0.0802
     34 C          65.4806   92.1226   12.6403 C.3     1  UNL1        0.0121
     35 C          66.5779   92.8266   13.3821 C.3     1  UNL1        0.0421
     36 C          67.7680   92.0551   13.8703 C.2     1  UNL1        0.0503
     37 O          68.8827   91.7180   12.9248 O.co2   1  UNL1       -0.5492
     38 O          67.8435   91.6206   15.3041 O.co2   1  UNL1       -0.5492
@<TRIPOS>UNITY_ATOM_ATTR
37 1
charge -1
@<TRIPOS>BOND
     1     5     6    1
     2     6     7   ar
     3     7    17    1
     4    17    18   ar
     5    18    19   ar
     6    19    20   ar
     7    20    21   ar
     8    21    22   ar
     9     7     8   ar
    10     8     9   ar
    11     9    10   ar
    12    10    11   ar
    13    11    12   ar
    14    12    13    1
    15    12    14   ar
    16    14    15   ar
    17    15    16   ar
    18    16     1    1
    19     1     2    2
    20     1     3   am
    21     3    23    1
    22    23    24    1
    23    24    34    1
    24    34    35    1
    25    35    36    1
    26    36    37   ar
    27    36    38   ar
    28    24    25    1
    29    25    26   ar
    30    26    27    1
    31    26    28   ar
    32    28    29   ar
    33    29    30   ar
    34    30    31    1
    35    30    32   ar
    36    32    33    1
    37    16     6   ar
    38    32    25   ar
    39    22    17   ar
    40    15     9   ar
    41     3     4    1
@<TRIPOS>MOLECULE
*****
 38 41 0 0 0
SMALL
GASTEIGER

@<TRIPOS>ATOM
      1 C          62.2982   89.9958   10.9380 C.2     1  UNL1        0.2456
      2 O          61.2663   90.8848   11.5664 O.2     1  UNL1       -0.2702
      3 N          63.6213   90.5635   10.5170 N.am    1  UNL1       -0.3005
      4 H          64.2985   89.9800   10.1045 H       1  UNL1        0.1497
      5 C          63.4729   87.9522   12.7938 C.3     1  UNL1        0.0328
      6 C          62.5943   87.5172   11.6584 C.ar    1  UNL1        0.0002
      7 C          62.3031   86.0604   11.4510 C.ar    1  UNL1        0.0774
      8 N          61.4246   85.6254   10.3157 N.ar    1  UNL1       -0.2457
      9 C          60.8372   86.6472    9.3878 C.ar    1  UNL1        0.0814
     10 C          59.9586   86.2122    8.2525 C.ar    1  UNL1        0.0196
     11 C          59.3713   87.2340    7.3246 C.ar    1  UNL1        0.0082
     12 C          59.6625   88.6908    7.5321 C.ar    1  UNL1        0.0347
     13 BR         59.0751   89.7126    6.6041 Br      1  UNL1       -0.0490
     14 C          60.5410   89.1258    8.6673 C.ar    1  UNL1        0.0083
     15 C          61.1284   88.1040    9.5952 C.ar    1  UNL1        0.0222
     16 C          62.0070   88.5390   10.7306 C.ar    1  UNL1        0.0523
     17 C          62.8905   85.0386   12.3789 C.ar    1  UNL1        0.0173
     18 C          62.4917   85.0214   13.8248 C.ar    1  UNL1        0.0015
     19 C          63.0791   83.9997   14.7527 C.ar    1  UNL1        0.0000
     20 C          64.0652   82.9951   14.2346 C.ar    1  UNL1        0.0000
     21 C          64.4640   83.0123   12.7887 C.ar    1  UNL1        0.0000
     22 C          63.8766   84.0341   11.8609 C.ar    1  UNL1        0.0015
     23 C          63.9125   92.0202   10.7244 C.3     1  UNL1        0.0941
     24 C          65.2212   92.4459   11.3209 C.3     1  UNL1        0.0454
     25 C          66.2356   93.1562   10.4744 C.ar    1  UNL1        0.0194
     26 C          65.9791   94.5616   10.0173 C.ar    1  UNL1        0.1371
     27 F          64.7083   95.2568   10.4066 F       1  UNL1       -0.2045
     28 C          66.9936   95.2718    9.1707 C.ar    1  UNL1        0.0317
     29 C          68.2644   94.5766    8.7813 C.ar    1  UNL1        0.0328
     30 C          68.5208   93.1711    9.2385 C.ar    1  UNL1        0.1504
     31 F          69.7917   92.4759    8.8491 F       1  UNL1       -0.2033
     32 C          67.5065   92.4609   10.0850 C.ar    1  UNL1        0.0833
     33 CL         67.7629   91.0555   10.5422 Cl      1  UNL1       -0.0802
     34 C          65.5156   92.1614   12.7640 C.3     1  UNL1        0.0121
     35 C          66.2061   93.1930   13.6061 C.3     1  UNL1        0.0421
     36 C          67.3633   92.7993   14.4754 C.2     1  UNL1        0.0503
     37 O          67.2522   92.9091   15.9672 O.co2   1  UNL1       -0.5492
     38 O          68.6318   92.2956   13.8529 O.co2   1  UNL1       -0.5492
@<TRIPOS>UNITY_ATOM_ATTR
37 1
charge -1
@<TRIPOS>BOND
     1     5     6    1
     2     6     7   ar
     3     7    17    1
     4    17    18   ar
     5    18    19   ar
     6    19    20   ar
     7    20    21   ar
     8    21    22   ar
     9     7     8   ar
    10     8     9   ar
    11     9    10   ar
    12    10    11   ar
    13    11    12   ar
    14    12    13    1
    15    12    14   ar
    16    14    15   ar
    17    15    16   ar
    18    16     1    1
    19     1     2    2
    20     1     3   am
    21     3    23    1
    22    23    24    1
    23    24    34    1
    24    34    35    1
    25    35    36    1
    26    36    37   ar
    27    36    38   ar
    28    24    25    1
    29    25    26   ar
    30    26    27    1
    31    26    28   ar
    32    28    29   ar
    33    29    30   ar
    34    30    31    1
    35    30    32   ar
    36    32    33    1
    37    16     6   ar
    38    32    25   ar
    39    22    17   ar
    40    15     9   ar
    41     3     4    1
@<TRIPOS>MOLECULE
*****
 38 41 0 0 0
SMALL
GASTEIGER

@<TRIPOS>ATOM
      1 C          62.1582   89.5523   11.0638 C.2     1  UNL1        0.2456
      2 O          61.2836   90.2193   12.0835 O.2     1  UNL1       -0.2702
      3 N          63.3067   90.3014   10.4555 N.am    1  UNL1       -0.3005
      4 H          63.8808   89.8636    9.7862 H       1  UNL1        0.1497
      5 C          63.3352   87.2807   12.6307 C.3     1  UNL1        0.0328
      6 C          62.4730   87.0003   11.4357 C.ar    1  UNL1        0.0002
      7 C          62.1993   85.5840   11.0241 C.ar    1  UNL1        0.0774
      8 N          61.3372   85.3035    9.8291 N.ar    1  UNL1       -0.2457
      9 C          60.7487   86.4393    9.0456 C.ar    1  UNL1        0.0814
     10 C          59.8866   86.1588    7.8507 C.ar    1  UNL1        0.0196
     11 C          59.2981   87.2946    7.0672 C.ar    1  UNL1        0.0082
     12 C          59.5718   88.7108    7.4788 C.ar    1  UNL1        0.0347
     13 BR         58.9833   89.8466    6.6953 Br      1  UNL1       -0.0490
     14 C          60.4339   88.9913    8.6738 C.ar    1  UNL1        0.0083
     15 C          61.0224   87.8556    9.4572 C.ar    1  UNL1        0.0222
     16 C          61.8846   88.1360   10.6522 C.ar    1  UNL1        0.0523
     17 C          62.7878   84.4483   11.8076 C.ar    1  UNL1        0.0173
     18 C          63.7654   83.5153   11.1567 C.ar    1  UNL1        0.0015
     19 C          64.3539   82.3796   11.9402 C.ar    1  UNL1        0.0000
     20 C          63.9647   82.1769   13.3746 C.ar    1  UNL1        0.0000
     21 C          62.9870   83.1099   14.0255 C.ar    1  UNL1        0.0000
     22 C          62.3986   84.2456   13.2420 C.ar    1  UNL1        0.0015
     23 C          63.5804   91.7177   10.8671 C.3     1  UNL1        0.0941
     24 C          64.9920   92.1762   11.0838 C.3     1  UNL1        0.0454
     25 C          65.4643   92.5224   12.4647 C.ar    1  UNL1        0.0194
     26 C          66.2229   93.7948   12.7010 C.ar    1  UNL1        0.1371
     27 F          66.5090   94.7209   11.5563 F       1  UNL1       -0.2045
     28 C          66.6952   94.1410   14.0820 C.ar    1  UNL1        0.0317
     29 C          66.4091   93.2148   15.2266 C.ar    1  UNL1        0.0328
     30 C          65.6506   91.9425   14.9904 C.ar    1  UNL1        0.1504
     31 F          65.3645   91.0163   16.1352 F       1  UNL1       -0.2033
     32 C          65.1782   91.5963   13.6095 C.ar    1  UNL1        0.0833
     33 CL         64.4197   90.3239   13.3733 Cl      1  UNL1       -0.0802
     34 C          65.9312   92.2886    9.9197 C.3     1  UNL1        0.0121
     35 C          67.3943   92.0165   10.1074 C.3     1  UNL1        0.0421
     36 C          68.4038   92.7156    9.2460 C.2     1  UNL1        0.0503
     37 O          69.0316   91.9943    8.0904 O.co2   1  UNL1       -0.5492
     38 O          68.7854   94.1362    9.5401 O.co2   1  UNL1       -0.5492
@<TRIPOS>UNITY_ATOM_ATTR
37 1
charge -1
@<TRIPOS>BOND
     1     5     6    1
     2     6     7   ar
     3     7    17    1
     4    17    18   ar
     5    18    19   ar
     6    19    20   ar
     7    20    21   ar
     8    21    22   ar
     9     7     8   ar
    10     8     9   ar
    11     9    10   ar
    12    10    11   ar
    13    11    12   ar
    14    12    13    1
    15    12    14   ar
    16    14    15   ar
    17    15    16   ar
    18    16     1    1
    19     1     2    2
    20     1     3   am
    21     3    23    1
    22    23    24    1
    23    24    34    1
    24    34    35    1
    25    35    36    1
    26    36    37   ar
    27    36    38   ar
    28    24    25    1
    29    25    26   ar
    30    26    27    1
    31    26    28   ar
    32    28    29   ar
    33    29    30   ar
    34    30    31    1
    35    30    32   ar
    36    32    33    1
    37    16     6   ar
    38    32    25   ar
    39    22    17   ar
    40    15     9   ar
    41     3     4    1
@<TRIPOS>MOLECULE
*****
 38 41 0 0 0
SMALL
GASTEIGER

@<TRIPOS>ATOM
      1 C          62.6143   89.8320   11.7692 C.2     1  UNL1        0.2456
      2 O          61.3565   90.3077   11.1048 O.2     1  UNL1       -0.2702
      3 N          62.8508   88.3634   11.9632 N.am    1  UNL1       -0.3005
      4 H          63.6764   88.0512   12.3993 H       1  UNL1        0.1497
      5 C          63.9984   91.6120    9.7903 C.3     1  UNL1        0.0328
      6 C          64.3278   91.7147   11.2501 C.ar    1  UNL1        0.0002
      7 C          65.3492   92.7074   11.7205 C.ar    1  UNL1        0.0774
      8 N          65.6786   92.8101   13.1802 N.ar    1  UNL1       -0.2457
      9 C          64.9866   91.9200   14.1697 C.ar    1  UNL1        0.0814
     10 C          65.3160   92.0227   15.6294 C.ar    1  UNL1        0.0196
     11 C          64.6240   91.1327   16.6188 C.ar    1  UNL1        0.0082
     12 C          63.6026   90.1400   16.1485 C.ar    1  UNL1        0.0347
     13 BR         62.9106   89.2500   17.1380 Br      1  UNL1       -0.0490
     14 C          63.2732   90.0373   14.6888 C.ar    1  UNL1        0.0083
     15 C          63.9652   90.9273   13.6994 C.ar    1  UNL1        0.0222
     16 C          63.6358   90.8247   12.2395 C.ar    1  UNL1        0.0523
     17 C          66.0412   93.5975   10.7310 C.ar    1  UNL1        0.0173
     18 C          67.2076   93.0789    9.9433 C.ar    1  UNL1        0.0015
     19 C          67.8996   93.9689    8.9539 C.ar    1  UNL1        0.0000
     20 C          67.4251   95.3775    8.7521 C.ar    1  UNL1        0.0000
     21 C          66.2587   95.8961    9.5398 C.ar    1  UNL1        0.0000
     22 C          65.5667   95.0061   10.5292 C.ar    1  UNL1        0.0015
     23 C          61.8294   87.3707   11.4929 C.3     1  UNL1        0.0941
     24 C          62.2699   86.0832   10.8619 C.3     1  UNL1        0.0454
     25 C          61.9160   85.7880    9.4345 C.ar    1  UNL1        0.0194
     26 C          62.8369   84.9585    8.5896 C.ar    1  UNL1        0.1371
     27 F          64.1117   84.4242    9.1721 F       1  UNL1       -0.2045
     28 C          62.4830   84.6633    7.1621 C.ar    1  UNL1        0.0317
     29 C          61.2082   85.1976    6.5795 C.ar    1  UNL1        0.0328
     30 C          60.2873   86.0271    7.4244 C.ar    1  UNL1        0.1504
     31 F          59.0125   86.5614    6.8418 F       1  UNL1       -0.2033
     32 C          60.6412   86.3223    8.8519 C.ar    1  UNL1        0.0833
     33 CL         59.7203   87.1518    9.6968 Cl      1  UNL1       -0.0802
     34 C          63.0643   85.0909   11.6583 C.3     1  UNL1        0.0121
     35 C          62.7623   84.8828   13.1127 C.3     1  UNL1        0.0421
     36 C          63.7716   85.2729   14.1516 C.2     1  UNL1        0.0503
     37 O          64.5350   84.2142   14.8905 O.co2   1  UNL1       -0.5492
     38 O          64.0173   86.7220   14.4515 O.co2   1  UNL1       -0.5492
@<TRIPOS>UNITY_ATOM_ATTR
37 1
charge -1
@<TRIPOS>BOND
     1     5     6    1
     2     6     7   ar
     3     7    17    1
     4    17    18   ar
     5    18    19   ar
     6    19    20   ar
     7    20    21   ar
     8    21    22   ar
     9     7     8   ar
    10     8     9   ar
    11     9    10   ar
    12    10    11   ar
    13    11    12   ar
    14    12    13    1
    15    12    14   ar
    16    14    15   ar
    17    15    16   ar
    18    16     1    1
    19     1     2    2
    20     1     3   am
    21     3    23    1
    22    23    24    1
    23    24    34    1
    24    34    35    1
    25    35    36    1
    26    36    37   ar
    27    36    38   ar
    28    24    25    1
    29    25    26   ar
    30    26    27    1
    31    26    28   ar
    32    28    29   ar
    33    29    30   ar
    34    30    31    1
    35    30    32   ar
    36    32    33    1
    37    16     6   ar
    38    32    25   ar
    39    22    17   ar
    40    15     9   ar
    41     3     4    1
@<TRIPOS>MOLECULE
*****
 38 41 0 0 0
SMALL
GASTEIGER

@<TRIPOS>ATOM
      1 C          62.4249   89.8385   11.7377 C.2     1  UNL1        0.2456
      2 O          61.1245   90.3785   11.2205 O.2     1  UNL1       -0.2702
      3 N          62.6514   88.3568   11.7962 N.am    1  UNL1       -0.3005
      4 H          63.5049   88.0024   12.1357 H       1  UNL1        0.1497
      5 C          63.8270   91.5964    9.7517 C.3     1  UNL1        0.0328
      6 C          64.1997   91.6590   11.2034 C.ar    1  UNL1        0.0002
      7 C          65.2735   92.6006   11.6620 C.ar    1  UNL1        0.0774
      8 N          65.6463   92.6633   13.1135 N.ar    1  UNL1       -0.2457
      9 C          64.9452   91.7844   14.1066 C.ar    1  UNL1        0.0814
     10 C          65.3179   91.8471   15.5581 C.ar    1  UNL1        0.0196
     11 C          64.6169   90.9681   16.5511 C.ar    1  UNL1        0.0082
     12 C          63.5431   90.0265   16.0925 C.ar    1  UNL1        0.0347
     13 BR         62.8420   89.1476   17.0855 Br      1  UNL1       -0.0490
     14 C          63.1703   89.9639   14.6409 C.ar    1  UNL1        0.0083
     15 C          63.8714   90.8428   13.6479 C.ar    1  UNL1        0.0222
     16 C          63.4987   90.7801   12.1963 C.ar    1  UNL1        0.0523
     17 C          65.9746   93.4796   10.6689 C.ar    1  UNL1        0.0173
     18 C          67.1489   92.9527    9.8987 C.ar    1  UNL1        0.0015
     19 C          67.8499   93.8316    8.9057 C.ar    1  UNL1        0.0000
     20 C          67.3766   95.2374    8.6830 C.ar    1  UNL1        0.0000
     21 C          66.2023   95.7643    9.4532 C.ar    1  UNL1        0.0000
     22 C          65.5013   94.8854   10.4462 C.ar    1  UNL1        0.0015
     23 C          61.5776   87.4152   11.3376 C.3     1  UNL1        0.0941
     24 C          61.8491   86.4572   10.2158 C.3     1  UNL1        0.0454
     25 C          62.6644   85.2230   10.4644 C.ar    1  UNL1        0.0194
     26 C          63.3905   84.5626    9.3301 C.ar    1  UNL1        0.1371
     27 F          63.3012   85.1365    7.9471 F       1  UNL1       -0.2045
     28 C          64.2058   83.3283    9.5787 C.ar    1  UNL1        0.0317
     29 C          64.2951   82.7544   10.9617 C.ar    1  UNL1        0.0328
     30 C          63.5691   83.4148   12.0961 C.ar    1  UNL1        0.1504
     31 F          63.6584   82.8408   13.4791 F       1  UNL1       -0.2033
     32 C          62.7537   84.6490   11.8475 C.ar    1  UNL1        0.0833
     33 CL         62.0277   85.3094   12.9818 Cl      1  UNL1       -0.0802
     34 C          61.3053   86.7335    8.8455 C.3     1  UNL1        0.0121
     35 C          60.5488   88.0012    8.5803 C.3     1  UNL1        0.0421
     36 C          59.3306   87.9787    7.7053 C.2     1  UNL1        0.0503
     37 O          59.0734   89.1050    6.7487 O.co2   1  UNL1       -0.5492
     38 O          58.3697   86.8297    7.7870 O.co2   1  UNL1       -0.5492
@<TRIPOS>UNITY_ATOM_ATTR
37 1
charge -1
@<TRIPOS>BOND
     1     5     6    1
     2     6     7   ar
     3     7    17    1
     4    17    18   ar
     5    18    19   ar
     6    19    20   ar
     7    20    21   ar
     8    21    22   ar
     9     7     8   ar
    10     8     9   ar
    11     9    10   ar
    12    10    11   ar
    13    11    12   ar
    14    12    13    1
    15    12    14   ar
    16    14    15   ar
    17    15    16   ar
    18    16     1    1
    19     1     2    2
    20     1     3   am
    21     3    23    1
    22    23    24    1
    23    24    34    1
    24    34    35    1
    25    35    36    1
    26    36    37   ar
    27    36    38   ar
    28    24    25    1
    29    25    26   ar
    30    26    27    1
    31    26    28   ar
    32    28    29   ar
    33    29    30   ar
    34    30    31    1
    35    30    32   ar
    36    32    33    1
    37    16     6   ar
    38    32    25   ar
    39    22    17   ar
    40    15     9   ar
    41     3     4    1
@<TRIPOS>MOLECULE
*****
 38 41 0 0 0
SMALL
GASTEIGER

@<TRIPOS>ATOM
      1 C          63.5541   90.1310   12.8453 C.2     1  UNL1        0.2456
      2 O          63.1646   90.4861   14.2496 O.2     1  UNL1       -0.2702
      3 N          64.5355   90.9862   12.1000 N.am    1  UNL1       -0.3005
      4 H          64.7912   90.7531   11.1783 H       1  UNL1        0.1497
      5 C          61.7427   90.4487   10.4750 C.3     1  UNL1        0.0328
      6 C          62.0565   89.0794   11.0010 C.ar    1  UNL1        0.0002
      7 C          61.4645   87.8690   10.3418 C.ar    1  UNL1        0.0774
      8 N          61.7782   86.4997   10.8678 N.ar    1  UNL1       -0.2457
      9 C          62.6839   86.3408   12.0530 C.ar    1  UNL1        0.0814
     10 C          62.9975   84.9715   12.5789 C.ar    1  UNL1        0.0196
     11 C          63.9032   84.8127   13.7640 C.ar    1  UNL1        0.0082
     12 C          64.4951   86.0231   14.4232 C.ar    1  UNL1        0.0347
     13 BR         65.4008   85.8642   15.6084 Br      1  UNL1       -0.0490
     14 C          64.1815   87.3924   13.8972 C.ar    1  UNL1        0.0083
     15 C          63.2758   87.5512   12.7121 C.ar    1  UNL1        0.0222
     16 C          62.9621   88.9205   12.1861 C.ar    1  UNL1        0.0523
     17 C          60.5588   88.0279    9.1567 C.ar    1  UNL1        0.0173
     18 C          60.3999   89.3715    8.5090 C.ar    1  UNL1        0.0015
     19 C          59.4943   89.5303    7.3239 C.ar    1  UNL1        0.0000
     20 C          58.7475   88.3456    6.7864 C.ar    1  UNL1        0.0000
     21 C          58.9064   87.0020    7.4341 C.ar    1  UNL1        0.0000
     22 C          59.8121   86.8432    8.6192 C.ar    1  UNL1        0.0015
     23 C          65.1275   92.1966   12.7592 C.3     1  UNL1        0.0941
     24 C          66.5436   92.5939   12.4647 C.3     1  UNL1        0.0454
     25 C          66.8390   93.5352   11.3349 C.ar    1  UNL1        0.0194
     26 C          66.5226   94.9950   11.4727 C.ar    1  UNL1        0.1371
     27 F          65.9108   95.5134   12.7404 F       1  UNL1       -0.2045
     28 C          66.8179   95.9364   10.3428 C.ar    1  UNL1        0.0317
     29 C          67.4297   95.4180    9.0752 C.ar    1  UNL1        0.0328
     30 C          67.7461   93.9583    8.9373 C.ar    1  UNL1        0.1504
     31 F          68.3579   93.4399    7.6696 F       1  UNL1       -0.2033
     32 C          67.4507   93.0169   10.0672 C.ar    1  UNL1        0.0833
     33 CL         67.7671   91.5571    9.9293 Cl      1  UNL1       -0.0802
     34 C          67.6644   92.0497   13.3001 C.3     1  UNL1        0.0121
     35 C          67.4208   91.6810   14.7334 C.3     1  UNL1        0.0421
     36 C          67.2537   92.7557   15.7664 C.2     1  UNL1        0.0503
     37 O          68.2783   93.8444   15.8886 O.co2   1  UNL1       -0.5492
     38 O          66.0618   92.7418   16.6771 O.co2   1  UNL1       -0.5492
@<TRIPOS>UNITY_ATOM_ATTR
37 1
charge -1
@<TRIPOS>BOND
     1     5     6    1
     2     6     7   ar
     3     7    17    1
     4    17    18   ar
     5    18    19   ar
     6    19    20   ar
     7    20    21   ar
     8    21    22   ar
     9     7     8   ar
    10     8     9   ar
    11     9    10   ar
    12    10    11   ar
    13    11    12   ar
    14    12    13    1
    15    12    14   ar
    16    14    15   ar
    17    15    16   ar
    18    16     1    1
    19     1     2    2
    20     1     3   am
    21     3    23    1
    22    23    24    1
    23    24    34    1
    24    34    35    1
    25    35    36    1
    26    36    37   ar
    27    36    38   ar
    28    24    25    1
    29    25    26   ar
    30    26    27    1
    31    26    28   ar
    32    28    29   ar
    33    29    30   ar
    34    30    31    1
    35    30    32   ar
    36    32    33    1
    37    16     6   ar
    38    32    25   ar
    39    22    17   ar
    40    15     9   ar
    41     3     4    1
@<TRIPOS>MOLECULE
*****
 38 41 0 0 0
SMALL
GASTEIGER

@<TRIPOS>ATOM
      1 C          64.1612   87.5808   13.8510 C.2     1  UNL1        0.2456
      2 O          64.9518   87.0047   14.9880 O.2     1  UNL1       -0.2702
      3 N          64.1446   89.0635   13.6243 N.am    1  UNL1       -0.3005
      4 H          63.6257   89.4416   12.8779 H       1  UNL1        0.1497
      5 C          64.0612   84.6331   14.3998 C.3     1  UNL1        0.0328
      6 C          63.3370   85.2004   13.2150 C.ar    1  UNL1        0.0002
      7 C          62.5629   84.2938   12.3046 C.ar    1  UNL1        0.0774
      8 N          61.8388   84.8611   11.1198 N.ar    1  UNL1       -0.2457
      9 C          61.8887   86.3350   10.8453 C.ar    1  UNL1        0.0814
     10 C          61.1646   86.9022    9.6605 C.ar    1  UNL1        0.0196
     11 C          61.2146   88.3760    9.3861 C.ar    1  UNL1        0.0082
     12 C          61.9887   89.2826   10.2965 C.ar    1  UNL1        0.0347
     13 BR         62.0387   90.7565   10.0220 Br      1  UNL1       -0.0490
     14 C          62.7129   88.7153   11.4813 C.ar    1  UNL1        0.0083
     15 C          62.6629   87.2415   11.7557 C.ar    1  UNL1        0.0222
     16 C          63.3870   86.6742   12.9406 C.ar    1  UNL1        0.0523
     17 C          62.5129   82.8200   12.5790 C.ar    1  UNL1        0.0173
     18 C          61.9494   82.3171   13.8749 C.ar    1  UNL1        0.0015
     19 C          61.8994   80.8433   14.1493 C.ar    1  UNL1        0.0000
     20 C          62.4131   79.8723   13.1278 C.ar    1  UNL1        0.0000
     21 C          62.9766   80.3752   11.8319 C.ar    1  UNL1        0.0000
     22 C          63.0266   81.8490   11.5575 C.ar    1  UNL1        0.0015
     23 C          64.9188   89.9701   14.5347 C.3     1  UNL1        0.0941
     24 C          65.3783   91.3111   14.0443 C.3     1  UNL1        0.0454
     25 C          66.5902   91.9558   14.6489 C.ar    1  UNL1        0.0194
     26 C          66.4887   92.6468   15.9763 C.ar    1  UNL1        0.1371
     27 F          65.1753   92.6932   16.6992 F       1  UNL1       -0.2045
     28 C          67.7008   93.2915   16.5809 C.ar    1  UNL1        0.0317
     29 C          69.0142   93.2451   15.8580 C.ar    1  UNL1        0.0328
     30 C          69.1157   92.5540   14.5305 C.ar    1  UNL1        0.1504
     31 F          70.4293   92.5076   13.8076 F       1  UNL1       -0.2033
     32 C          67.9038   91.9094   13.9260 C.ar    1  UNL1        0.0833
     33 CL         68.0053   91.2183   12.5985 Cl      1  UNL1       -0.0802
     34 C          64.6258   92.0075   12.9494 C.3     1  UNL1        0.0121
     35 C          65.2904   92.2665   11.6299 C.3     1  UNL1        0.0421
     36 C          65.8663   93.6194   11.3330 C.2     1  UNL1        0.0503
     37 O          66.0929   94.5988   12.4462 O.co2   1  UNL1       -0.5492
     38 O          66.2156   93.9927    9.9227 O.co2   1  UNL1       -0.5492
@<TRIPOS>UNITY_ATOM_ATTR
37 1
charge -1
@<TRIPOS>BOND
     1     5     6    1
     2     6     7   ar
     3     7    17    1
     4    17    18   ar
     5    18    19   ar
     6    19    20   ar
     7    20    21   ar
     8    21    22   ar
     9     7     8   ar
    10     8     9   ar
    11     9    10   ar
    12    10    11   ar
    13    11    12   ar
    14    12    13    1
    15    12    14   ar
    16    14    15   ar
    17    15    16   ar
    18    16     1    1
    19     1     2    2
    20     1     3   am
    21     3    23    1
    22    23    24    1
    23    24    34    1
    24    34    35    1
    25    35    36    1
    26    36    37   ar
    27    36    38   ar
    28    24    25    1
    29    25    26   ar
    30    26    27    1
    31    26    28   ar
    32    28    29   ar
    33    29    30   ar
    34    30    31    1
    35    30    32   ar
    36    32    33    1
    37    16     6   ar
    38    32    25   ar
    39    22    17   ar
    40    15     9   ar
    41     3     4    1
@<TRIPOS>MOLECULE
*****
 38 41 0 0 0
SMALL
GASTEIGER

@<TRIPOS>ATOM
      1 C          62.3775   89.9873   11.7248 C.2     1  UNL1        0.2456
      2 O          61.1022   90.5792   11.2022 O.2     1  UNL1       -0.2702
      3 N          62.5415   88.4976   11.7901 N.am    1  UNL1       -0.3005
      4 H          63.3785   88.1091   12.1331 H       1  UNL1        0.1497
      5 C          63.8081   91.7306    9.7464 C.3     1  UNL1        0.0328
      6 C          64.2042   91.7566   11.1930 C.ar    1  UNL1        0.0002
      7 C          65.3155   92.6542   11.6504 C.ar    1  UNL1        0.0774
      8 N          65.7115   92.6801   13.0969 N.ar    1  UNL1       -0.2457
      9 C          64.9962   91.8084   14.0861 C.ar    1  UNL1        0.0814
     10 C          65.3923   91.8344   15.5326 C.ar    1  UNL1        0.0196
     11 C          64.6769   90.9627   16.5218 C.ar    1  UNL1        0.0082
     12 C          63.5656   90.0651   16.0644 C.ar    1  UNL1        0.0347
     13 BR         62.8503   89.1934   17.0537 Br      1  UNL1       -0.0490
     14 C          63.1696   90.0392   14.6179 C.ar    1  UNL1        0.0083
     15 C          63.8849   90.9108   13.6288 C.ar    1  UNL1        0.0222
     16 C          63.4888   90.8849   12.1822 C.ar    1  UNL1        0.0523
     17 C          66.0308   93.5259   10.6611 C.ar    1  UNL1        0.0173
     18 C          65.5800   94.9399   10.4438 C.ar    1  UNL1        0.0015
     19 C          66.2953   95.8115    9.4546 C.ar    1  UNL1        0.0000
     20 C          67.4615   95.2691    8.6827 C.ar    1  UNL1        0.0000
     21 C          67.9124   93.8551    8.9000 C.ar    1  UNL1        0.0000
     22 C          67.1970   92.9835    9.8892 C.ar    1  UNL1        0.0015
     23 C          61.4301   87.6000   11.3328 C.3     1  UNL1        0.0941
     24 C          61.7440   86.2486   10.7626 C.3     1  UNL1        0.0454
     25 C          61.4480   85.9554    9.3216 C.ar    1  UNL1        0.0194
     26 C          60.1571   86.4162    8.7123 C.ar    1  UNL1        0.1371
     27 F          59.1623   87.1703    9.5439 F       1  UNL1       -0.2045
     28 C          59.8612   86.1230    7.2713 C.ar    1  UNL1        0.0317
     29 C          60.8560   85.3690    6.4397 C.ar    1  UNL1        0.0328
     30 C          62.1469   84.9081    7.0490 C.ar    1  UNL1        0.1504
     31 F          63.1418   84.1541    6.2173 F       1  UNL1       -0.2033
     32 C          62.4429   85.2013    8.4899 C.ar    1  UNL1        0.0833
     33 CL         63.7338   84.7405    9.0993 Cl      1  UNL1       -0.0802
     34 C          62.3539   85.1904   11.6334 C.3     1  UNL1        0.0121
     35 C          63.2282   85.5812   12.7878 C.3     1  UNL1        0.0421
     36 C          63.2988   84.7070   14.0047 C.2     1  UNL1        0.0503
     37 O          64.5156   83.8663   14.2547 O.co2   1  UNL1       -0.5492
     38 O          62.1525   84.6736   14.9717 O.co2   1  UNL1       -0.5492
@<TRIPOS>UNITY_ATOM_ATTR
37 1
charge -1
@<TRIPOS>BOND
     1     5     6    1
     2     6     7   ar
     3     7    17    1
     4    17    18   ar
     5    18    19   ar
     6    19    20   ar
     7    20    21   ar
     8    21    22   ar
     9     7     8   ar
    10     8     9   ar
    11     9    10   ar
    12    10    11   ar
    13    11    12   ar
    14    12    13    1
    15    12    14   ar
    16    14    15   ar
    17    15    16   ar
    18    16     1    1
    19     1     2    2
    20     1     3   am
    21     3    23    1
    22    23    24    1
    23    24    34    1
    24    34    35    1
    25    35    36    1
    26    36    37   ar
    27    36    38   ar
    28    24    25    1
    29    25    26   ar
    30    26    27    1
    31    26    28   ar
    32    28    29   ar
    33    29    30   ar
    34    30    31    1
    35    30    32   ar
    36    32    33    1
    37    16     6   ar
    38    32    25   ar
    39    22    17   ar
    40    15     9   ar
    41     3     4    1
