@<TRIPOS>MOLECULE
*****
 34 37 0 0 0
SMALL
GASTEIGER

@<TRIPOS>ATOM
      1 C          59.0269   88.1449    7.4411 C.3     1  UNL1        0.0327
      2 C          59.9381   87.5986    8.5002 C.ar    1  UNL1       -0.0014
      3 C          60.5672   86.2484    8.3248 C.ar    1  UNL1        0.0947
      4 N          61.4784   85.7022    9.3838 N.ar    1  UNL1       -0.2396
      5 C          61.7602   86.5063   10.6183 C.ar    1  UNL1        0.1343
      6 C          61.1310   87.8567   10.7938 C.ar    1  UNL1        0.0852
      7 C          60.2199   88.4028    9.7347 C.ar    1  UNL1        0.0148
      8 C          62.6713   85.9601   11.6774 C.2     1  UNL1        0.2114
      9 O          63.2515   86.8769   12.7133 O.2     1  UNL1       -0.2852
     10 C          63.0021   84.4973   11.7006 C.2     1  UNL1        0.0396
     11 C          63.4564   83.8111   10.4465 C.2     1  UNL1        0.0504
     12 C          63.7872   82.3483   10.4697 C.2     1  UNL1        0.2355
     13 N          63.6639   81.5715   11.7470 N.2     1  UNL1       -0.0320
     14 C          63.2096   82.2577   13.0011 C.2     1  UNL1        0.3874
     15 N          62.9947   81.7560   14.3983 N.2     1  UNL1        0.0821
     16 N          62.5310   82.9087   15.2385 N.2     1  UNL1       -0.0364
     17 C          62.4594   84.1230   14.3607 C.2     1  UNL1        0.1393
     18 C          62.8788   83.7206   12.9779 C.3     1  UNL1        0.1848
     19 N          61.4128   88.6608   12.0282 N.pl3   1  UNL1       -0.2134
     20 H          60.8811   88.5137   12.8436 H       1  UNL1        0.1738
     21 S          62.5048   89.6890   12.0204 S.O2    1  UNL1        0.0736
     22 O          62.6412   89.5330   10.5348 O.2     1  UNL1       -0.1499
     23 O          62.3685   89.8451   13.5060 O.2     1  UNL1       -0.1499
     24 C          63.5969   90.7173   12.0126 C.ar    1  UNL1        0.1252
     25 C          63.8125   91.5731   10.7997 C.ar    1  UNL1        0.0210
     26 C          64.9046   92.6014   10.7920 C.ar    1  UNL1        0.0127
     27 C          65.7811   92.7738   11.9970 C.ar    1  UNL1        0.0616
     28 CL         66.8731   93.8021   11.9892 Cl      1  UNL1       -0.0823
     29 C          65.5655   91.9180   13.2099 C.ar    1  UNL1        0.0833
     30 C          64.4734   90.8897   13.2177 C.ar    1  UNL1        0.0249
     31 C          66.4418   92.0903   14.4149 C.3     1  UNL1        0.4194
     32 F          67.3183   92.2626   15.6199 F       1  UNL1       -0.1658
     33 F          65.3459   92.8483   15.1037 F       1  UNL1       -0.1658
     34 F          67.5379   91.3324   13.7261 F       1  UNL1       -0.1658
@<TRIPOS>BOND
     1     1     2    1
     2     2     3   ar
     3     3     4   ar
     4     4     5   ar
     5     5     8    1
     6     8     9    2
     7     8    10    1
     8    10    11    2
     9    11    12    1
    10    12    13    2
    11    13    14    1
    12    14    15    2
    13    15    16    1
    14    16    17    2
    15    17    18    1
    16     5     6   ar
    17     6    19    1
    18    19    21    1
    19    21    22    2
    20    21    23    2
    21    21    24    1
    22    24    25   ar
    23    25    26   ar
    24    26    27   ar
    25    27    28    1
    26    27    29   ar
    27    29    31    1
    28    31    32    1
    29    31    33    1
    30    31    34    1
    31    29    30   ar
    32     6     7   ar
    33     7     2   ar
    34    18    10    1
    35    30    24   ar
    36    18    14    1
    37    19    20    1
@<TRIPOS>MOLECULE
*****
 34 37 0 0 0
SMALL
GASTEIGER

@<TRIPOS>ATOM
      1 C          60.3450   87.6608    9.1686 C.3     1  UNL1        0.0327
      2 C          61.1674   88.5012   10.1001 C.ar    1  UNL1       -0.0014
      3 C          61.1762   89.9939    9.9534 C.ar    1  UNL1        0.0947
      4 N          61.9986   90.8343   10.8848 N.ar    1  UNL1       -0.2396
      5 C          62.8122   90.1818   11.9629 C.ar    1  UNL1        0.1343
      6 C          62.8034   88.6890   12.1097 C.ar    1  UNL1        0.0852
      7 C          61.9810   87.8487   11.1783 C.ar    1  UNL1        0.0148
      8 C          63.6345   91.0221   12.8944 C.2     1  UNL1        0.2114
      9 O          63.2164   91.1834   14.3259 O.2     1  UNL1       -0.2852
     10 C          64.8750   91.7012   12.3943 C.2     1  UNL1        0.0396
     11 C          64.9181   92.2525   11.0000 C.2     1  UNL1        0.0504
     12 C          66.1585   92.9315   10.5000 C.2     1  UNL1        0.2355
     13 N          67.3561   93.0593   11.3943 N.2     1  UNL1       -0.0320
     14 C          67.3130   92.5080   12.7886 C.2     1  UNL1        0.3874
     15 N          68.3302   92.4853   13.8907 N.2     1  UNL1        0.0821
     16 N          67.7184   91.7922   15.0719 N.2     1  UNL1       -0.0364
     17 C          66.3231   91.3865   14.6998 C.2     1  UNL1        0.1393
     18 C          66.0725   91.8289   13.2886 C.3     1  UNL1        0.1848
     19 N          63.6169   88.0365   13.1878 N.pl3   1  UNL1       -0.2134
     20 H          64.1693   88.5868   13.7889 H       1  UNL1        0.1738
     21 S          63.5889   86.5457   13.3502 S.O2    1  UNL1        0.0736
     22 O          63.9823   86.6950   14.7900 O.2     1  UNL1       -0.1499
     23 O          63.1955   86.3963   11.9104 O.2     1  UNL1       -0.1499
     24 C          63.5609   85.0548   13.5126 C.ar    1  UNL1        0.1252
     25 C          63.6646   84.4472   14.8801 C.ar    1  UNL1        0.0210
     26 C          63.6366   82.9562   15.0424 C.ar    1  UNL1        0.0127
     27 C          63.5048   82.0729   13.8373 C.ar    1  UNL1        0.0616
     28 CL         63.4768   80.5819   13.9996 Cl      1  UNL1       -0.0823
     29 C          63.4011   82.6804   12.4698 C.ar    1  UNL1        0.0833
     30 C          63.4291   84.1714   12.3074 C.ar    1  UNL1        0.0249
     31 C          63.2693   81.7972   11.2646 C.3     1  UNL1        0.4194
     32 F          63.1374   80.9139   10.0595 F       1  UNL1       -0.1658
     33 F          64.6376   82.2118   10.8110 F       1  UNL1       -0.1658
     34 F          61.9009   81.3825   11.7182 F       1  UNL1       -0.1658
@<TRIPOS>BOND
     1     1     2    1
     2     2     3   ar
     3     3     4   ar
     4     4     5   ar
     5     5     8    1
     6     8     9    2
     7     8    10    1
     8    10    11    2
     9    11    12    1
    10    12    13    2
    11    13    14    1
    12    14    15    2
    13    15    16    1
    14    16    17    2
    15    17    18    1
    16     5     6   ar
    17     6    19    1
    18    19    21    1
    19    21    22    2
    20    21    23    2
    21    21    24    1
    22    24    25   ar
    23    25    26   ar
    24    26    27   ar
    25    27    28    1
    26    27    29   ar
    27    29    31    1
    28    31    32    1
    29    31    33    1
    30    31    34    1
    31    29    30   ar
    32     6     7   ar
    33     7     2   ar
    34    18    10    1
    35    30    24   ar
    36    18    14    1
    37    19    20    1
@<TRIPOS>MOLECULE
*****
 34 37 0 0 0
SMALL
GASTEIGER

@<TRIPOS>ATOM
      1 C          63.8835   89.8072   16.2253 C.3     1  UNL1        0.0327
      2 C          64.0847   90.4171   14.8697 C.ar    1  UNL1       -0.0014
      3 C          65.4227   90.9797   14.4914 C.ar    1  UNL1        0.0947
      4 N          65.6239   91.5896   13.1358 N.ar    1  UNL1       -0.2396
      5 C          64.4869   91.6369   12.1585 C.ar    1  UNL1        0.1343
      6 C          63.1488   91.0743   12.5368 C.ar    1  UNL1        0.0852
      7 C          62.9477   90.4644   13.8923 C.ar    1  UNL1        0.0148
      8 C          64.6880   92.2468   10.8030 C.2     1  UNL1        0.2114
      9 O          63.5493   92.2998    9.8279 O.2     1  UNL1       -0.2852
     10 C          66.0278   92.8036   10.4223 C.2     1  UNL1        0.0396
     11 C          67.1919   91.8807   10.2140 C.2     1  UNL1        0.0504
     12 C          68.5316   92.4375    9.8334 C.2     1  UNL1        0.2355
     13 N          68.7075   93.9172    9.6611 N.2     1  UNL1       -0.0320
     14 C          67.5435   94.8401    9.8694 C.2     1  UNL1        0.3874
     15 N          67.4149   96.3313    9.7716 N.2     1  UNL1        0.0821
     16 N          65.9956   96.6962   10.0917 N.2     1  UNL1       -0.0364
     17 C          65.2470   95.4304   10.3875 C.2     1  UNL1        0.1393
     18 C          66.2036   94.2832   10.2501 C.3     1  UNL1        0.1848
     19 N          62.0118   91.1216   11.5595 N.pl3   1  UNL1       -0.2134
     20 H          61.4698   91.9390   11.4741 H       1  UNL1        0.1738
     21 S          61.7008   89.9236   10.7123 S.O2    1  UNL1        0.0736
     22 O          60.3691   90.5180   10.3606 O.2     1  UNL1       -0.1499
     23 O          63.0323   89.3292   11.0639 O.2     1  UNL1       -0.1499
     24 C          61.3896   88.7255    9.8650 C.ar    1  UNL1        0.1252
     25 C          60.2011   88.7422    8.9500 C.ar    1  UNL1        0.0210
     26 C          59.8901   87.5441    8.1028 C.ar    1  UNL1        0.0127
     27 C          60.7674   86.3293    8.1705 C.ar    1  UNL1        0.0616
     28 CL         60.4563   85.1313    7.3233 Cl      1  UNL1       -0.0823
     29 C          61.9559   86.3126    9.0855 C.ar    1  UNL1        0.0833
     30 C          62.2670   87.5107    9.9328 C.ar    1  UNL1        0.0249
     31 C          62.8332   85.0979    9.1534 C.3     1  UNL1        0.4194
     32 F          63.7107   83.8832    9.2211 F       1  UNL1       -0.1658
     33 F          62.1567   84.6801   10.4252 F       1  UNL1       -0.1658
     34 F          63.5099   85.5157    7.8814 F       1  UNL1       -0.1658
@<TRIPOS>BOND
     1     1     2    1
     2     2     3   ar
     3     3     4   ar
     4     4     5   ar
     5     5     8    1
     6     8     9    2
     7     8    10    1
     8    10    11    2
     9    11    12    1
    10    12    13    2
    11    13    14    1
    12    14    15    2
    13    15    16    1
    14    16    17    2
    15    17    18    1
    16     5     6   ar
    17     6    19    1
    18    19    21    1
    19    21    22    2
    20    21    23    2
    21    21    24    1
    22    24    25   ar
    23    25    26   ar
    24    26    27   ar
    25    27    28    1
    26    27    29   ar
    27    29    31    1
    28    31    32    1
    29    31    33    1
    30    31    34    1
    31    29    30   ar
    32     6     7   ar
    33     7     2   ar
    34    18    10    1
    35    30    24   ar
    36    18    14    1
    37    19    20    1
@<TRIPOS>MOLECULE
*****
 34 37 0 0 0
SMALL
GASTEIGER

@<TRIPOS>ATOM
      1 C          59.5920   87.1054    8.5541 C.3     1  UNL1        0.0327
      2 C          60.3714   87.8360    9.6072 C.ar    1  UNL1       -0.0014
      3 C          60.1324   89.2987    9.8377 C.ar    1  UNL1        0.0947
      4 N          60.9118   90.0292   10.8908 N.ar    1  UNL1       -0.2396
      5 C          61.9302   89.2969   11.7134 C.ar    1  UNL1        0.1343
      6 C          62.1692   87.8341   11.4829 C.ar    1  UNL1        0.0852
      7 C          61.3898   87.1036   10.4298 C.ar    1  UNL1        0.0148
      8 C          62.7095   90.0274   12.7664 C.2     1  UNL1        0.2114
      9 O          62.4066   89.7986   14.2177 O.2     1  UNL1       -0.2852
     10 C          63.7918   90.9866   12.3683 C.2     1  UNL1        0.0396
     11 C          63.8764   91.4767   10.9532 C.2     1  UNL1        0.0504
     12 C          64.9586   92.4359   10.5551 C.2     1  UNL1        0.2355
     13 N          65.9564   92.9052   11.5721 N.2     1  UNL1       -0.0320
     14 C          65.8719   92.4151   12.9873 C.2     1  UNL1        0.3874
     15 N          66.7078   92.7000   14.1997 N.2     1  UNL1        0.0821
     16 N          66.1421   91.9169   15.3472 N.2     1  UNL1       -0.0364
     17 C          64.9566   91.1479   14.8439 C.2     1  UNL1        0.1393
     18 C          64.7896   91.4558   13.3854 C.3     1  UNL1        0.1848
     19 N          63.1876   87.1018   12.3054 N.pl3   1  UNL1       -0.2134
     20 H          63.9582   87.5863   12.6804 H       1  UNL1        0.1738
     21 S          63.0320   85.6312   12.5566 S.O2    1  UNL1        0.0736
     22 O          62.8482   85.3995   11.0860 O.2     1  UNL1       -0.1499
     23 O          63.2158   85.8629   14.0271 O.2     1  UNL1       -0.1499
     24 C          62.8763   84.1606   12.8077 C.ar    1  UNL1        0.1252
     25 C          62.5458   83.6657   14.1846 C.ar    1  UNL1        0.0210
     26 C          62.3901   82.1951   14.4356 C.ar    1  UNL1        0.0127
     27 C          62.5650   81.2193   13.3099 C.ar    1  UNL1        0.0616
     28 CL         62.4094   79.7487   13.5610 Cl      1  UNL1       -0.0823
     29 C          62.8956   81.7142   11.9330 C.ar    1  UNL1        0.0833
     30 C          63.0513   83.1848   11.6819 C.ar    1  UNL1        0.0249
     31 C          63.0705   80.7386   10.8072 C.3     1  UNL1        0.4194
     32 F          63.2454   79.7628    9.6815 F       1  UNL1       -0.1658
     33 F          63.7333   81.8047    9.9862 F       1  UNL1       -0.1658
     34 F          62.4078   79.6724   11.6283 F       1  UNL1       -0.1658
@<TRIPOS>BOND
     1     1     2    1
     2     2     3   ar
     3     3     4   ar
     4     4     5   ar
     5     5     8    1
     6     8     9    2
     7     8    10    1
     8    10    11    2
     9    11    12    1
    10    12    13    2
    11    13    14    1
    12    14    15    2
    13    15    16    1
    14    16    17    2
    15    17    18    1
    16     5     6   ar
    17     6    19    1
    18    19    21    1
    19    21    22    2
    20    21    23    2
    21    21    24    1
    22    24    25   ar
    23    25    26   ar
    24    26    27   ar
    25    27    28    1
    26    27    29   ar
    27    29    31    1
    28    31    32    1
    29    31    33    1
    30    31    34    1
    31    29    30   ar
    32     6     7   ar
    33     7     2   ar
    34    18    10    1
    35    30    24   ar
    36    18    14    1
    37    19    20    1
@<TRIPOS>MOLECULE
*****
 34 37 0 0 0
SMALL
GASTEIGER

@<TRIPOS>ATOM
      1 C          59.4260   87.6422    8.3386 C.3     1  UNL1        0.0327
      2 C          60.2504   88.2652    9.4260 C.ar    1  UNL1       -0.0014
      3 C          60.1756   89.7431    9.6707 C.ar    1  UNL1        0.0947
      4 N          61.0000   90.3661   10.7582 N.ar    1  UNL1       -0.2396
      5 C          61.8992   89.5109   11.6008 C.ar    1  UNL1        0.1343
      6 C          61.9741   88.0329   11.3561 C.ar    1  UNL1        0.0852
      7 C          61.1497   87.4100   10.2688 C.ar    1  UNL1        0.0148
      8 C          62.7236   90.1338   12.6882 C.2     1  UNL1        0.2114
      9 O          62.4299   89.8198   14.1253 O.2     1  UNL1       -0.2852
     10 C          63.8417   91.0706   12.3385 C.2     1  UNL1        0.0396
     11 C          63.9865   91.5740   10.9330 C.2     1  UNL1        0.0504
     12 C          65.1045   92.5108   10.5833 C.2     1  UNL1        0.2355
     13 N          66.0779   92.9442   11.6392 N.2     1  UNL1       -0.0320
     14 C          65.9332   92.4407   13.0447 C.2     1  UNL1        0.3874
     15 N          66.7337   92.6917   14.2881 N.2     1  UNL1        0.0821
     16 N          66.1103   91.9100   15.4063 N.2     1  UNL1       -0.0364
     17 C          64.9245   91.1759   14.8540 C.2     1  UNL1        0.1393
     18 C          64.8150   91.5039   13.3944 C.3     1  UNL1        0.1848
     19 N          62.8733   87.1777   12.1988 N.pl3   1  UNL1       -0.2134
     20 H          63.4322   87.5897   12.8968 H       1  UNL1        0.1738
     21 S          62.9211   85.6949   11.9780 S.O2    1  UNL1        0.0736
     22 O          62.8501   85.9132   10.4957 O.2     1  UNL1       -0.1499
     23 O          62.9922   85.4764   13.4603 O.2     1  UNL1       -0.1499
     24 C          62.9689   84.2120   11.7572 C.ar    1  UNL1        0.1252
     25 C          63.4515   83.6640   10.4469 C.ar    1  UNL1        0.0210
     26 C          63.4993   82.1811   10.2262 C.ar    1  UNL1        0.0127
     27 C          63.0645   81.2462   11.3156 C.ar    1  UNL1        0.0616
     28 CL         63.1123   79.7633   11.0948 Cl      1  UNL1       -0.0823
     29 C          62.5819   81.7942   12.6259 C.ar    1  UNL1        0.0833
     30 C          62.5341   83.2771   12.8467 C.ar    1  UNL1        0.0249
     31 C          62.1471   80.8593   13.7154 C.3     1  UNL1        0.4194
     32 F          61.7123   79.9245   14.8049 F       1  UNL1       -0.1658
     33 F          60.7120   81.1748   13.4134 F       1  UNL1       -0.1658
     34 F          63.5822   80.5439   14.0173 F       1  UNL1       -0.1658
@<TRIPOS>BOND
     1     1     2    1
     2     2     3   ar
     3     3     4   ar
     4     4     5   ar
     5     5     8    1
     6     8     9    2
     7     8    10    1
     8    10    11    2
     9    11    12    1
    10    12    13    2
    11    13    14    1
    12    14    15    2
    13    15    16    1
    14    16    17    2
    15    17    18    1
    16     5     6   ar
    17     6    19    1
    18    19    21    1
    19    21    22    2
    20    21    23    2
    21    21    24    1
    22    24    25   ar
    23    25    26   ar
    24    26    27   ar
    25    27    28    1
    26    27    29   ar
    27    29    31    1
    28    31    32    1
    29    31    33    1
    30    31    34    1
    31    29    30   ar
    32     6     7   ar
    33     7     2   ar
    34    18    10    1
    35    30    24   ar
    36    18    14    1
    37    19    20    1
@<TRIPOS>MOLECULE
*****
 34 37 0 0 0
SMALL
GASTEIGER

@<TRIPOS>ATOM
      1 C          69.1683   92.0853   16.9309 C.3     1  UNL1        0.0327
      2 C          68.2959   92.2454   15.7212 C.ar    1  UNL1       -0.0014
      3 C          68.8607   92.8317   14.4614 C.ar    1  UNL1        0.0947
      4 N          67.9882   92.9918   13.2517 N.ar    1  UNL1       -0.2396
      5 C          66.5510   92.5655   13.3020 C.ar    1  UNL1        0.1343
      6 C          65.9861   91.9792   14.5618 C.ar    1  UNL1        0.0852
      7 C          66.8585   91.8191   15.7714 C.ar    1  UNL1        0.0148
      8 C          65.6785   92.7256   12.0923 C.2     1  UNL1        0.2114
      9 O          64.4149   91.9268   11.9680 O.2     1  UNL1       -0.2852
     10 C          66.0696   93.6844   11.0071 C.2     1  UNL1        0.0396
     11 C          65.4794   95.0630   10.9758 C.2     1  UNL1        0.0504
     12 C          65.8704   96.0218    9.8906 C.2     1  UNL1        0.2355
     13 N          66.8517   95.6020    8.8365 N.2     1  UNL1       -0.0320
     14 C          67.4419   94.2233    8.8679 C.2     1  UNL1        0.3874
     15 N          68.4257   93.5321    7.9709 N.2     1  UNL1        0.0821
     16 N          68.6426   92.1461    8.5019 N.2     1  UNL1       -0.0364
     17 C          67.7929   91.9807    9.7269 C.2     1  UNL1        0.1393
     18 C          67.0509   93.2645    9.9531 C.3     1  UNL1        0.1848
     19 N          64.5488   91.5529   14.6120 N.pl3   1  UNL1       -0.2134
     20 H          63.8387   92.1848   14.3560 H       1  UNL1        0.1738
     21 S          64.1935   90.1637   15.0523 S.O2    1  UNL1        0.0736
     22 O          63.4930   90.7240   16.2546 O.2     1  UNL1       -0.1499
     23 O          64.8940   89.6035   13.8501 O.2     1  UNL1       -0.1499
     24 C          63.8382   88.7746   15.4927 C.ar    1  UNL1        0.1252
     25 C          63.0871   88.5629   16.7737 C.ar    1  UNL1        0.0210
     26 C          62.7318   87.1737   17.2140 C.ar    1  UNL1        0.0127
     27 C          63.1275   85.9961   16.3733 C.ar    1  UNL1        0.0616
     28 CL         62.7721   84.6069   16.8137 Cl      1  UNL1       -0.0823
     29 C          63.8786   86.2078   15.0923 C.ar    1  UNL1        0.0833
     30 C          64.2339   87.5970   14.6519 C.ar    1  UNL1        0.0249
     31 C          64.2744   85.0303   14.2516 C.3     1  UNL1        0.4194
     32 F          64.6702   83.8528   13.4109 F       1  UNL1       -0.1658
     33 F          62.8710   84.9297   13.7316 F       1  UNL1       -0.1658
     34 F          65.6779   85.1309   14.7715 F       1  UNL1       -0.1658
@<TRIPOS>BOND
     1     1     2    1
     2     2     3   ar
     3     3     4   ar
     4     4     5   ar
     5     5     8    1
     6     8     9    2
     7     8    10    1
     8    10    11    2
     9    11    12    1
    10    12    13    2
    11    13    14    1
    12    14    15    2
    13    15    16    1
    14    16    17    2
    15    17    18    1
    16     5     6   ar
    17     6    19    1
    18    19    21    1
    19    21    22    2
    20    21    23    2
    21    21    24    1
    22    24    25   ar
    23    25    26   ar
    24    26    27   ar
    25    27    28    1
    26    27    29   ar
    27    29    31    1
    28    31    32    1
    29    31    33    1
    30    31    34    1
    31    29    30   ar
    32     6     7   ar
    33     7     2   ar
    34    18    10    1
    35    30    24   ar
    36    18    14    1
    37    19    20    1
@<TRIPOS>MOLECULE
*****
 34 37 0 0 0
SMALL
GASTEIGER

@<TRIPOS>ATOM
      1 C          61.6085   80.0036   13.0716 C.3     1  UNL1        0.0327
      2 C          62.3507   81.2399   13.4849 C.ar    1  UNL1       -0.0014
      3 C          62.6151   81.5056   14.9373 C.ar    1  UNL1        0.0947
      4 N          63.3573   82.7419   15.3506 N.ar    1  UNL1       -0.2396
      5 C          63.8351   83.7124   14.3114 C.ar    1  UNL1        0.1343
      6 C          63.5708   83.4466   12.8589 C.ar    1  UNL1        0.0852
      7 C          62.8286   82.2104   12.4457 C.ar    1  UNL1        0.0148
      8 C          64.5773   84.9486   14.7246 C.2     1  UNL1        0.2114
      9 O          65.9620   85.2009   14.2056 O.2     1  UNL1       -0.2852
     10 C          63.9350   85.9327   15.6568 C.2     1  UNL1        0.0396
     11 C          63.3704   85.4671   16.9662 C.2     1  UNL1        0.0504
     12 C          62.7281   86.4511   17.8983 C.2     1  UNL1        0.2355
     13 N          62.6503   87.9009   17.5212 N.2     1  UNL1       -0.0320
     14 C          63.2148   88.3665   16.2118 C.2     1  UNL1        0.3874
     15 N          63.2836   89.7223   15.5739 N.2     1  UNL1        0.0821
     16 N          63.9684   89.5762   14.2474 N.2     1  UNL1       -0.0364
     17 C          64.3229   88.1301   14.0655 C.2     1  UNL1        0.1393
     18 C          63.8572   87.3824   15.2796 C.3     1  UNL1        0.1848
     19 N          64.0486   84.4171   11.8198 N.pl3   1  UNL1       -0.2134
     20 H          65.0134   84.5375   11.6654 H       1  UNL1        0.1738
     21 S          63.0565   85.2040   11.0159 S.O2    1  UNL1        0.0736
     22 O          63.4729   84.4651    9.7786 O.2     1  UNL1       -0.1499
     23 O          62.6400   85.9429   12.2530 O.2     1  UNL1       -0.1499
     24 C          62.0643   85.9909   10.2119 C.ar    1  UNL1        0.1252
     25 C          61.6144   85.4855    8.8732 C.ar    1  UNL1        0.0210
     26 C          60.6222   86.2725    8.0693 C.ar    1  UNL1        0.0127
     27 C          60.0800   87.5648    8.6040 C.ar    1  UNL1        0.0616
     28 CL         59.0878   88.3518    7.8000 Cl      1  UNL1       -0.0823
     29 C          60.5299   88.0702    9.9427 C.ar    1  UNL1        0.0833
     30 C          61.5221   87.2833   10.7467 C.ar    1  UNL1        0.0249
     31 C          59.9877   89.3624   10.4775 C.3     1  UNL1        0.4194
     32 F          59.4455   90.6547   11.0124 F       1  UNL1       -0.1658
     33 F          60.8778   90.1238    9.5404 F       1  UNL1       -0.1658
     34 F          59.0976   88.6011   11.4147 F       1  UNL1       -0.1658
@<TRIPOS>BOND
     1     1     2    1
     2     2     3   ar
     3     3     4   ar
     4     4     5   ar
     5     5     8    1
     6     8     9    2
     7     8    10    1
     8    10    11    2
     9    11    12    1
    10    12    13    2
    11    13    14    1
    12    14    15    2
    13    15    16    1
    14    16    17    2
    15    17    18    1
    16     5     6   ar
    17     6    19    1
    18    19    21    1
    19    21    22    2
    20    21    23    2
    21    21    24    1
    22    24    25   ar
    23    25    26   ar
    24    26    27   ar
    25    27    28    1
    26    27    29   ar
    27    29    31    1
    28    31    32    1
    29    31    33    1
    30    31    34    1
    31    29    30   ar
    32     6     7   ar
    33     7     2   ar
    34    18    10    1
    35    30    24   ar
    36    18    14    1
    37    19    20    1
@<TRIPOS>MOLECULE
*****
 34 37 0 0 0
SMALL
GASTEIGER

@<TRIPOS>ATOM
      1 C          62.6888   87.0837   18.6475 C.3     1  UNL1        0.0327
      2 C          63.0532   87.7676   17.3631 C.ar    1  UNL1       -0.0014
      3 C          63.0777   89.2656   17.2918 C.ar    1  UNL1        0.0947
      4 N          63.4421   89.9496   16.0075 N.ar    1  UNL1       -0.2396
      5 C          63.7820   89.1353   14.7944 C.ar    1  UNL1        0.1343
      6 C          63.7576   87.6372   14.8657 C.ar    1  UNL1        0.0852
      7 C          63.3932   86.9533   16.1500 C.ar    1  UNL1        0.0148
      8 C          64.1464   89.8192   13.5101 C.2     1  UNL1        0.2114
      9 O          63.4955   89.3989   12.2256 O.2     1  UNL1       -0.2852
     10 C          65.1618   90.9233   13.5101 C.2     1  UNL1        0.0396
     11 C          66.0994   91.0800   14.6704 C.2     1  UNL1        0.0504
     12 C          67.1147   92.1840   14.6705 C.2     1  UNL1        0.2355
     13 N          67.1924   93.1316   13.5102 N.2     1  UNL1       -0.0320
     14 C          66.2548   92.9750   12.3499 C.2     1  UNL1        0.3874
     15 N          66.0963   93.7505   11.0758 N.2     1  UNL1        0.0821
     16 N          64.9831   93.1256   10.2882 N.2     1  UNL1       -0.0364
     17 C          64.4535   91.9639   11.0757 C.2     1  UNL1        0.1393
     18 C          65.2394   91.8708   12.3499 C.3     1  UNL1        0.1848
     19 N          64.0974   86.8229   13.6526 N.pl3   1  UNL1       -0.2134
     20 H          64.6089   87.2280   12.9153 H       1  UNL1        0.1738
     21 S          63.6582   85.3916   13.5629 S.O2    1  UNL1        0.0736
     22 O          62.4528   85.8109   12.7746 O.2     1  UNL1       -0.1499
     23 O          64.8634   84.9722   14.3512 O.2     1  UNL1       -0.1499
     24 C          63.2188   83.9602   13.4732 C.ar    1  UNL1        0.1252
     25 C          62.5936   83.2916   14.6615 C.ar    1  UNL1        0.0210
     26 C          62.1543   81.8602   14.5717 C.ar    1  UNL1        0.0127
     27 C          62.3401   81.0973   13.2936 C.ar    1  UNL1        0.0616
     28 CL         61.9008   79.6659   13.2039 Cl      1  UNL1       -0.0823
     29 C          62.9654   81.7659   12.1053 C.ar    1  UNL1        0.0833
     30 C          63.4047   83.1973   12.1950 C.ar    1  UNL1        0.0249
     31 C          63.1513   81.0031   10.8272 C.3     1  UNL1        0.4194
     32 F          63.3372   80.2404    9.5491 F       1  UNL1       -0.1658
     33 F          62.7324   79.7402   11.5199 F       1  UNL1       -0.1658
     34 F          63.5701   82.2660   10.1345 F       1  UNL1       -0.1658
@<TRIPOS>BOND
     1     1     2    1
     2     2     3   ar
     3     3     4   ar
     4     4     5   ar
     5     5     8    1
     6     8     9    2
     7     8    10    1
     8    10    11    2
     9    11    12    1
    10    12    13    2
    11    13    14    1
    12    14    15    2
    13    15    16    1
    14    16    17    2
    15    17    18    1
    16     5     6   ar
    17     6    19    1
    18    19    21    1
    19    21    22    2
    20    21    23    2
    21    21    24    1
    22    24    25   ar
    23    25    26   ar
    24    26    27   ar
    25    27    28    1
    26    27    29   ar
    27    29    31    1
    28    31    32    1
    29    31    33    1
    30    31    34    1
    31    29    30   ar
    32     6     7   ar
    33     7     2   ar
    34    18    10    1
    35    30    24   ar
    36    18    14    1
    37    19    20    1
@<TRIPOS>MOLECULE
*****
 34 37 0 0 0
SMALL
GASTEIGER

@<TRIPOS>ATOM
      1 C          60.9195   80.5796   13.7517 C.3     1  UNL1        0.0327
      2 C          61.8926   81.7076   13.9268 C.ar    1  UNL1       -0.0014
      3 C          62.3665   82.0831   15.2995 C.ar    1  UNL1        0.0947
      4 N          63.3396   83.2111   15.4746 N.ar    1  UNL1       -0.2396
      5 C          63.8389   83.9635   14.2768 C.ar    1  UNL1        0.1343
      6 C          63.3651   83.5880   12.9040 C.ar    1  UNL1        0.0852
      7 C          62.3920   82.4600   12.7290 C.ar    1  UNL1        0.0148
      8 C          64.8121   85.0915   14.4519 C.2     1  UNL1        0.2114
      9 O          66.2735   84.8674   14.1986 O.2     1  UNL1       -0.2852
     10 C          64.3238   86.4436   14.8801 C.2     1  UNL1        0.0396
     11 C          64.5394   87.6343   13.9937 C.2     1  UNL1        0.0504
     12 C          64.0513   88.9863   14.4219 C.2     1  UNL1        0.2355
     13 N          63.3474   89.1479   15.7367 N.2     1  UNL1       -0.0320
     14 C          63.1318   87.9572   16.6231 C.2     1  UNL1        0.3874
     15 N          62.4761   87.8100   17.9642 N.2     1  UNL1        0.0821
     16 N          62.5591   86.3669   18.3647 N.2     1  UNL1       -0.0364
     17 C          63.2660   85.6222   17.2712 C.2     1  UNL1        0.1393
     18 C          63.6200   86.6051   16.1949 C.3     1  UNL1        0.1848
     19 N          63.8644   84.3404   11.7063 N.pl3   1  UNL1       -0.2134
     20 H          64.8160   84.2951   11.4581 H       1  UNL1        0.1738
     21 S          62.9139   85.1618   10.8868 S.O2    1  UNL1        0.0736
     22 O          62.4449   85.8590   12.1294 O.2     1  UNL1       -0.1499
     23 O          63.3828   84.4647    9.6442 O.2     1  UNL1       -0.1499
     24 C          61.9633   85.9833   10.0673 C.ar    1  UNL1        0.1252
     25 C          61.4666   85.4643    8.7505 C.ar    1  UNL1        0.0210
     26 C          60.5160   86.2858    7.9310 C.ar    1  UNL1        0.0127
     27 C          60.0621   87.6262    8.4283 C.ar    1  UNL1        0.0616
     28 CL         59.1115   88.4477    7.6087 Cl      1  UNL1       -0.0823
     29 C          60.5587   88.1452    9.7451 C.ar    1  UNL1        0.0833
     30 C          61.5093   87.3237   10.5646 C.ar    1  UNL1        0.0249
     31 C          60.1049   89.4855   10.2424 C.3     1  UNL1        0.4194
     32 F          59.6511   90.8259   10.7397 F       1  UNL1       -0.1658
     33 F          59.1386   88.8134   11.1723 F       1  UNL1       -0.1658
     34 F          61.0712   90.1577    9.3125 F       1  UNL1       -0.1658
@<TRIPOS>BOND
     1     1     2    1
     2     2     3   ar
     3     3     4   ar
     4     4     5   ar
     5     5     8    1
     6     8     9    2
     7     8    10    1
     8    10    11    2
     9    11    12    1
    10    12    13    2
    11    13    14    1
    12    14    15    2
    13    15    16    1
    14    16    17    2
    15    17    18    1
    16     5     6   ar
    17     6    19    1
    18    19    21    1
    19    21    22    2
    20    21    23    2
    21    21    24    1
    22    24    25   ar
    23    25    26   ar
    24    26    27   ar
    25    27    28    1
    26    27    29   ar
    27    29    31    1
    28    31    32    1
    29    31    33    1
    30    31    34    1
    31    29    30   ar
    32     6     7   ar
    33     7     2   ar
    34    18    10    1
    35    30    24   ar
    36    18    14    1
    37    19    20    1
