@<TRIPOS>MOLECULE
*****
 28 32 0 0 0
SMALL
GASTEIGER

@<TRIPOS>ATOM
      1 C          65.5403   92.8691   12.6489 C.3     1  UNL1        0.1689
      2 C          65.0865   92.3115   13.9654 C.3     1  UNL1        0.2354
      3 O          64.1151   91.2025   13.6890 O.2     1  UNL1       -0.4576
      4 C          63.9685   91.0746   12.2016 C.2     1  UNL1        0.2269
      5 N          64.8494   92.1046   11.5589 N.2     1  UNL1       -0.2313
      6 C          63.0945   90.0897   11.4832 C.ar    1  UNL1        0.0823
      7 C          63.0019   88.6202   11.7696 C.ar    1  UNL1        0.0116
      8 C          62.0099   88.0237   10.8157 C.ar    1  UNL1        0.0067
      9 C          61.5132   86.6203   10.6316 C.ar    1  UNL1        0.0014
     10 C          60.4961   86.3178    9.5714 C.ar    1  UNL1        0.0114
     11 C          59.9757   87.4185    8.6954 C.ar    1  UNL1        0.0582
     12 CL         58.9585   87.1159    7.6353 Cl      1  UNL1       -0.0822
     13 C          60.4723   88.8219    8.8796 C.ar    1  UNL1        0.0179
     14 C          61.4894   89.1244    9.9397 C.ar    1  UNL1        0.0304
     15 S          62.1597   90.4013   10.3523 S.2     1  UNL1       -0.0823
     16 F          68.0427   95.8694    8.0952 F       1  UNL1       -0.2042
     17 C          67.4172   95.1193    9.2336 C.ar    1  UNL1        0.1401
     18 C          67.5012   93.6224    9.2818 C.ar    1  UNL1        0.0294
     19 C          66.8755   92.8723   10.4203 C.ar    1  UNL1        0.0000
     20 C          66.1659   93.6192   11.5105 C.ar    1  UNL1        0.0034
     21 C          66.0819   95.1160   11.4623 C.ar    1  UNL1        0.0000
     22 C          66.7075   95.8661   10.3239 C.ar    1  UNL1        0.0294
     23 C          66.3620   93.7903   13.5010 C.3     1  UNL1        0.1595
     24 N          67.4915   93.2438   14.3230 N.ar    1  UNL1       -0.2277
     25 C          67.7120   93.4821   15.7874 C.ar    1  UNL1        0.1973
     26 N          68.9556   92.7486   16.1943 N.ar    1  UNL1       -0.2007
     27 C          69.5037   92.0571   14.9813 C.ar    1  UNL1        0.2210
     28 N          68.5988   92.3632   13.8248 N.ar    1  UNL1       -0.1451
@<TRIPOS>BOND
     1    16    17    1
     2    17    18   ar
     3    18    19   ar
     4    19    20   ar
     5    20     1    1
     6     1    23    1
     7    23    24    1
     8    24    25   ar
     9    25    26   ar
    10    26    27   ar
    11    27    28   ar
    12     1     2    1
    13     2     3    1
    14     3     4    1
    15     4     6    1
    16     6     7   ar
    17     7     8   ar
    18     8     9   ar
    19     9    10   ar
    20    10    11   ar
    21    11    12    1
    22    11    13   ar
    23    13    14   ar
    24    14    15   ar
    25     4     5    2
    26    20    21   ar
    27    21    22   ar
    28    22    17   ar
    29     5     1    1
    30    28    24   ar
    31    15     6   ar
    32    14     8   ar
@<TRIPOS>MOLECULE
*****
 28 32 0 0 0
SMALL
GASTEIGER

@<TRIPOS>ATOM
      1 C          61.4149   87.9364   11.1008 C.3     1  UNL1        0.1689
      2 C          60.4932   89.0979   11.3272 C.3     1  UNL1        0.2354
      3 O          61.2795   90.1920   11.9866 O.2     1  UNL1       -0.4576
      4 C          62.6872   89.7066   12.1676 C.2     1  UNL1        0.2269
      5 N          62.7709   88.3126   11.6202 N.2     1  UNL1       -0.2313
      6 C          63.8135   90.4796   12.7873 C.ar    1  UNL1        0.0823
      7 C          64.3523   91.7933   12.3037 C.ar    1  UNL1        0.0116
      8 C          65.4705   92.2002   13.2169 C.ar    1  UNL1        0.0067
      9 C          66.3697   93.4007   13.2295 C.ar    1  UNL1        0.0014
     10 C          67.4213   93.5390   14.2902 C.ar    1  UNL1        0.0114
     11 C          67.5736   92.4767   15.3383 C.ar    1  UNL1        0.0582
     12 CL         68.6252   92.6151   16.3990 Cl      1  UNL1       -0.0822
     13 C          66.6744   91.2762   15.3257 C.ar    1  UNL1        0.0179
     14 C          65.6229   91.1380   14.2650 C.ar    1  UNL1        0.0304
     15 S          64.5988   90.0746   13.9995 S.2     1  UNL1       -0.0823
     16 F          64.0848   82.7490    9.6998 F       1  UNL1       -0.2042
     17 C          63.4173   84.0458   10.0501 C.ar    1  UNL1        0.1401
     18 C          63.0118   84.3217   11.4676 C.ar    1  UNL1        0.0294
     19 C          62.3443   85.6187   11.8178 C.ar    1  UNL1        0.0000
     20 C          62.0824   86.6396   10.7505 C.ar    1  UNL1        0.0034
     21 C          62.4879   86.3636    9.3330 C.ar    1  UNL1        0.0000
     22 C          63.1554   85.0668    8.9828 C.ar    1  UNL1        0.0294
     23 C          60.1985   87.2891   10.5082 C.3     1  UNL1        0.1595
     24 N          59.7283   87.6868    9.1404 N.ar    1  UNL1       -0.2277
     25 C          58.9338   86.8320    8.1980 C.ar    1  UNL1        0.1973
     26 N          58.6846   87.6261    6.9501 N.ar    1  UNL1       -0.2007
     27 C          59.3250   88.9718    7.1213 C.ar    1  UNL1        0.2210
     28 N          59.9701   89.0091    8.4750 N.ar    1  UNL1       -0.1451
@<TRIPOS>BOND
     1    16    17    1
     2    17    18   ar
     3    18    19   ar
     4    19    20   ar
     5    20     1    1
     6     1    23    1
     7    23    24    1
     8    24    25   ar
     9    25    26   ar
    10    26    27   ar
    11    27    28   ar
    12     1     2    1
    13     2     3    1
    14     3     4    1
    15     4     6    1
    16     6     7   ar
    17     7     8   ar
    18     8     9   ar
    19     9    10   ar
    20    10    11   ar
    21    11    12    1
    22    11    13   ar
    23    13    14   ar
    24    14    15   ar
    25     4     5    2
    26    20    21   ar
    27    21    22   ar
    28    22    17   ar
    29     5     1    1
    30    28    24   ar
    31    15     6   ar
    32    14     8   ar
@<TRIPOS>MOLECULE
*****
 28 32 0 0 0
SMALL
GASTEIGER

@<TRIPOS>ATOM
      1 C          64.9276   91.5051   13.1709 C.3     1  UNL1        0.1689
      2 C          63.7949   91.4761   12.1879 C.3     1  UNL1        0.2354
      3 O          63.2500   90.0791   12.1498 O.2     1  UNL1       -0.4576
      4 C          64.0458   89.2447   13.1092 C.2     1  UNL1        0.2269
      5 N          65.0826   90.1261   13.7403 N.2     1  UNL1       -0.2313
      6 C          63.8408   87.7853   13.3885 C.ar    1  UNL1        0.0823
      7 C          64.3163   87.0448   14.6033 C.ar    1  UNL1        0.0116
      8 C          63.8937   85.6119   14.4676 C.ar    1  UNL1        0.0067
      9 C          64.0845   84.4206   15.3588 C.ar    1  UNL1        0.0014
     10 C          63.5387   83.0842   14.9514 C.ar    1  UNL1        0.0114
     11 C          62.8021   82.9391   13.6528 C.ar    1  UNL1        0.0582
     12 CL         62.2563   81.6026   13.2454 Cl      1  UNL1       -0.0822
     13 C          62.6113   84.1304   12.7616 C.ar    1  UNL1        0.0179
     14 C          63.1571   85.4668   13.1690 C.ar    1  UNL1        0.0304
     15 S          63.1244   86.8100   12.5021 S.2     1  UNL1       -0.0823
     16 F          69.5296   92.8322   16.7847 F       1  UNL1       -0.2042
     17 C          68.3792   92.5005   15.8813 C.ar    1  UNL1        0.1401
     18 C          68.6369   91.9501   14.5099 C.ar    1  UNL1        0.0294
     19 C          67.4863   91.6183   13.6064 C.ar    1  UNL1        0.0000
     20 C          66.0780   91.8369   14.0744 C.ar    1  UNL1        0.0034
     21 C          65.8203   92.3872   15.4458 C.ar    1  UNL1        0.0000
     22 C          66.9708   92.7190   16.3492 C.ar    1  UNL1        0.0294
     23 C          65.0130   92.9535   12.7904 C.3     1  UNL1        0.1595
     24 N          65.9064   93.3817   11.6641 N.ar    1  UNL1       -0.2277
     25 C          66.4235   94.7697   11.4276 C.ar    1  UNL1        0.1973
     26 N          67.2762   94.7428   10.1938 N.ar    1  UNL1       -0.2007
     27 C          67.2861   93.3380    9.6678 C.ar    1  UNL1        0.2210
     28 N          66.4395   92.4969   10.5765 N.ar    1  UNL1       -0.1451
@<TRIPOS>BOND
     1    16    17    1
     2    17    18   ar
     3    18    19   ar
     4    19    20   ar
     5    20     1    1
     6     1    23    1
     7    23    24    1
     8    24    25   ar
     9    25    26   ar
    10    26    27   ar
    11    27    28   ar
    12     1     2    1
    13     2     3    1
    14     3     4    1
    15     4     6    1
    16     6     7   ar
    17     7     8   ar
    18     8     9   ar
    19     9    10   ar
    20    10    11   ar
    21    11    12    1
    22    11    13   ar
    23    13    14   ar
    24    14    15   ar
    25     4     5    2
    26    20    21   ar
    27    21    22   ar
    28    22    17   ar
    29     5     1    1
    30    28    24   ar
    31    15     6   ar
    32    14     8   ar
@<TRIPOS>MOLECULE
*****
 28 32 0 0 0
SMALL
GASTEIGER

@<TRIPOS>ATOM
      1 C          62.9121   88.2845   12.3402 C.3     1  UNL1        0.1689
      2 C          63.8936   88.1158   13.4618 C.3     1  UNL1        0.2354
      3 O          64.0623   86.6467   13.7132 O.2     1  UNL1       -0.4576
      4 C          63.1850   85.9073   12.7469 C.2     1  UNL1        0.2269
      5 N          62.4741   86.9196   11.8983 N.2     1  UNL1       -0.2313
      6 C          63.0434   84.4174   12.6467 C.ar    1  UNL1        0.0823
      7 C          62.7312   83.4833   13.7781 C.ar    1  UNL1        0.0116
      8 C          62.6841   82.0886   13.2282 C.ar    1  UNL1        0.0067
      9 C          62.4199   80.7623   13.8771 C.ar    1  UNL1        0.0014
     10 C          62.4389   79.5080   13.0548 C.ar    1  UNL1        0.0114
     11 C          62.7220   79.5800   11.5835 C.ar    1  UNL1        0.0582
     12 CL         62.7409   78.3256   10.7611 Cl      1  UNL1       -0.0822
     13 C          62.9861   80.9063   10.9346 C.ar    1  UNL1        0.0179
     14 C          62.9671   82.1606   11.7569 C.ar    1  UNL1        0.0304
     15 S          63.1892   83.5999   11.3976 S.2     1  UNL1       -0.0823
     16 F          59.1893   90.1834    8.0349 F       1  UNL1       -0.2042
     17 C          60.1200   89.7087    9.1112 C.ar    1  UNL1        0.1401
     18 C          60.1451   90.4026   10.4408 C.ar    1  UNL1        0.0294
     19 C          61.0759   89.9279   11.5172 C.ar    1  UNL1        0.0000
     20 C          61.9814   88.7592   11.2639 C.ar    1  UNL1        0.0034
     21 C          61.9562   88.0652    9.9343 C.ar    1  UNL1        0.0000
     22 C          61.0256   88.5400    8.8580 C.ar    1  UNL1        0.0294
     23 C          63.1554   89.7486   12.5570 C.3     1  UNL1        0.1595
     24 N          63.4690   90.2613   13.9314 N.ar    1  UNL1       -0.2277
     25 C          64.5743   91.2109   14.2873 C.ar    1  UNL1        0.1973
     26 N          64.5206   91.4509   15.7670 N.ar    1  UNL1       -0.2007
     27 C          63.3821   90.6497   16.3256 C.ar    1  UNL1        0.2210
     28 N          62.7323   89.9145   15.1911 N.ar    1  UNL1       -0.1451
@<TRIPOS>BOND
     1    16    17    1
     2    17    18   ar
     3    18    19   ar
     4    19    20   ar
     5    20     1    1
     6     1    23    1
     7    23    24    1
     8    24    25   ar
     9    25    26   ar
    10    26    27   ar
    11    27    28   ar
    12     1     2    1
    13     2     3    1
    14     3     4    1
    15     4     6    1
    16     6     7   ar
    17     7     8   ar
    18     8     9   ar
    19     9    10   ar
    20    10    11   ar
    21    11    12    1
    22    11    13   ar
    23    13    14   ar
    24    14    15   ar
    25     4     5    2
    26    20    21   ar
    27    21    22   ar
    28    22    17   ar
    29     5     1    1
    30    28    24   ar
    31    15     6   ar
    32    14     8   ar
@<TRIPOS>MOLECULE
*****
 28 32 0 0 0
SMALL
GASTEIGER

@<TRIPOS>ATOM
      1 C          62.2444   86.8937   11.6950 C.3     1  UNL1        0.1689
      2 C          62.9083   86.1439   12.8117 C.3     1  UNL1        0.2354
      3 O          63.8196   87.0941   13.5305 O.2     1  UNL1       -0.4576
      4 C          63.7190   88.4311   12.8580 C.2     1  UNL1        0.2269
      5 N          62.7454   88.3073   11.7236 N.2     1  UNL1       -0.2313
      6 C          64.4615   89.6738   13.2509 C.ar    1  UNL1        0.0823
      7 C          64.5116   90.9545   12.4717 C.ar    1  UNL1        0.0116
      8 C          65.3654   91.9262   13.2312 C.ar    1  UNL1        0.0067
      9 C          65.7696   93.3425   12.9472 C.ar    1  UNL1        0.0014
     10 C          66.6514   94.0786   13.9118 C.ar    1  UNL1        0.0114
     11 C          67.1290   93.3984   15.1605 C.ar    1  UNL1        0.0582
     12 CL         68.0108   94.1345   16.1252 Cl      1  UNL1       -0.0822
     13 C          66.7247   91.9821   15.4446 C.ar    1  UNL1        0.0179
     14 C          65.8429   91.2461   14.4800 C.ar    1  UNL1        0.0304
     15 S          65.2843   89.8540   14.4921 S.2     1  UNL1       -0.0823
     16 F          59.0294   88.7939    6.9989 F       1  UNL1       -0.2042
     17 C          59.8331   88.3188    8.1729 C.ar    1  UNL1        0.1401
     18 C          60.0404   86.8499    8.3949 C.ar    1  UNL1        0.0294
     19 C          60.8442   86.3749    9.5690 C.ar    1  UNL1        0.0000
     20 C          61.4407   87.3688   10.5210 C.ar    1  UNL1        0.0034
     21 C          61.2334   88.8377   10.2990 C.ar    1  UNL1        0.0000
     22 C          60.4296   89.3127    9.1250 C.ar    1  UNL1        0.0294
     23 C          61.5754   85.5795   11.4209 C.3     1  UNL1        0.1595
     24 N          62.4011   84.3394   11.2465 N.ar    1  UNL1       -0.2277
     25 C          63.4163   84.1005   10.1684 C.ar    1  UNL1        0.1973
     26 N          63.9992   82.7339   10.3751 N.ar    1  UNL1       -0.2007
     27 C          63.3441   82.1282   11.5811 C.ar    1  UNL1        0.2210
     28 N          62.3565   83.1205   12.1195 N.ar    1  UNL1       -0.1451
@<TRIPOS>BOND
     1    16    17    1
     2    17    18   ar
     3    18    19   ar
     4    19    20   ar
     5    20     1    1
     6     1    23    1
     7    23    24    1
     8    24    25   ar
     9    25    26   ar
    10    26    27   ar
    11    27    28   ar
    12     1     2    1
    13     2     3    1
    14     3     4    1
    15     4     6    1
    16     6     7   ar
    17     7     8   ar
    18     8     9   ar
    19     9    10   ar
    20    10    11   ar
    21    11    12    1
    22    11    13   ar
    23    13    14   ar
    24    14    15   ar
    25     4     5    2
    26    20    21   ar
    27    21    22   ar
    28    22    17   ar
    29     5     1    1
    30    28    24   ar
    31    15     6   ar
    32    14     8   ar
@<TRIPOS>MOLECULE
*****
 28 32 0 0 0
SMALL
GASTEIGER

@<TRIPOS>ATOM
      1 C          61.8335   87.0058   11.3379 C.3     1  UNL1        0.1689
      2 C          60.8748   88.1334   11.0938 C.3     1  UNL1        0.2354
      3 O          61.4134   89.3557   11.7764 O.2     1  UNL1       -0.4576
      4 C          62.7049   88.9835   12.4424 C.2     1  UNL1        0.2269
      5 N          62.9645   87.5313   12.1714 N.2     1  UNL1       -0.2313
      6 C          63.5827   89.9024   13.2395 C.ar    1  UNL1        0.0823
      7 C          63.4464   90.2026   14.7028 C.ar    1  UNL1        0.0116
      8 C          64.5303   91.1681   15.0808 C.ar    1  UNL1        0.0067
      9 C          64.8874   91.8156   16.3859 C.ar    1  UNL1        0.0014
     10 C          66.0506   92.7595   16.4613 C.ar    1  UNL1        0.0114
     11 C          66.8569   93.0560   15.2316 C.ar    1  UNL1        0.0582
     12 CL         68.0202   94.0000   15.3071 Cl      1  UNL1       -0.0822
     13 C          66.4999   92.4085   13.9266 C.ar    1  UNL1        0.0179
     14 C          65.3366   91.4646   13.8512 C.ar    1  UNL1        0.0304
     15 S          64.7509   90.6823   12.7132 S.2     1  UNL1       -0.0823
     16 F          64.8545   81.8301   11.6301 F       1  UNL1       -0.2042
     17 C          64.0993   83.1240   11.5570 C.ar    1  UNL1        0.1401
     18 C          63.7007   83.6856   10.2245 C.ar    1  UNL1        0.0294
     19 C          62.9454   84.9796   10.1515 C.ar    1  UNL1        0.0000
     20 C          62.5887   85.7119   11.4110 C.ar    1  UNL1        0.0034
     21 C          62.9873   85.1503   12.7436 C.ar    1  UNL1        0.0000
     22 C          63.7426   83.8564   12.8166 C.ar    1  UNL1        0.0294
     23 C          60.8604   86.2099   10.5198 C.3     1  UNL1        0.1595
     24 N          60.2964   86.7861    9.2549 N.ar    1  UNL1       -0.2277
     25 C          60.2685   86.1127    7.9149 C.ar    1  UNL1        0.1973
     26 N          59.6161   87.0474    6.9398 N.ar    1  UNL1       -0.2007
     27 C          59.2409   88.2986    7.6772 C.ar    1  UNL1        0.2210
     28 N          59.6614   88.1371    9.1080 N.ar    1  UNL1       -0.1451
@<TRIPOS>BOND
     1    16    17    1
     2    17    18   ar
     3    18    19   ar
     4    19    20   ar
     5    20     1    1
     6     1    23    1
     7    23    24    1
     8    24    25   ar
     9    25    26   ar
    10    26    27   ar
    11    27    28   ar
    12     1     2    1
    13     2     3    1
    14     3     4    1
    15     4     6    1
    16     6     7   ar
    17     7     8   ar
    18     8     9   ar
    19     9    10   ar
    20    10    11   ar
    21    11    12    1
    22    11    13   ar
    23    13    14   ar
    24    14    15   ar
    25     4     5    2
    26    20    21   ar
    27    21    22   ar
    28    22    17   ar
    29     5     1    1
    30    28    24   ar
    31    15     6   ar
    32    14     8   ar
