@<TRIPOS>MOLECULE
*****
 34 39 0 0 0
SMALL
GASTEIGER

@<TRIPOS>ATOM
      1 O          64.4746   88.1155   13.4664 O.2     1  UNL1       -0.2747
      2 C          63.2266   88.3615   12.6713 C.2     1  UNL1        0.2294
      3 N          62.3683   89.5542   12.9724 N.am    1  UNL1       -0.2769
      4 C          62.8370   87.4146   11.5750 C.3     1  UNL1        0.1211
      5 C          62.3862   87.9487   10.2478 C.3     1  UNL1        0.0804
      6 N          61.9966   87.0019    9.1516 N.3     1  UNL1       -0.2969
      7 C          62.0577   85.5210    9.3826 C.3     1  UNL1        0.0714
      8 C          62.5085   84.9870   10.7098 C.3     1  UNL1        0.0490
      9 C          62.8981   85.9338   11.8060 C.3     1  UNL1        0.1224
     10 O          63.3166   86.7538   12.9904 O.3     1  UNL1       -0.3492
     11 C          63.6867   85.8129   14.0983 C.3     1  UNL1        0.1687
     12 C          63.4970   84.4112   13.5988 C.ar    1  UNL1        0.0079
     13 C          63.7051   83.0765   14.2508 C.ar    1  UNL1        0.0299
     14 C          63.4259   81.8165   13.4863 C.ar    1  UNL1        0.1671
     15 F          63.6340   80.4819   14.1383 F       1  UNL1       -0.2018
     16 C          62.9385   81.8913   12.0696 C.ar    1  UNL1        0.1671
     17 F          62.6593   80.6314   11.3051 F       1  UNL1       -0.2018
     18 C          62.7304   83.2260   11.4175 C.ar    1  UNL1        0.0297
     19 C          63.0097   84.4860   12.1820 C.ar    1  UNL1        0.0033
     20 H          62.6069   87.2017    8.3592 H       1  UNL1        0.1233
     21 C          61.1204   89.8001   12.1773 C.3     1  UNL1        0.0758
     22 C          59.6735   89.5103   11.9078 C.3     1  UNL1        0.0215
     23 C          60.4058   90.5159   11.0696 C.3     1  UNL1        0.0215
     24 C          62.7579   90.5010   14.0686 C.3     1  UNL1        0.1215
     25 C          64.1239   91.1208   14.0741 C.ar    1  UNL1        0.0153
     26 C          64.9236   91.1624   15.3425 C.ar    1  UNL1       -0.0011
     27 C          66.2895   91.7822   15.3479 C.ar    1  UNL1       -0.0002
     28 C          66.8558   92.3604   14.0850 C.ar    1  UNL1        0.0015
     29 C          66.0561   92.3189   12.8166 C.ar    1  UNL1        0.0174
     30 C          66.6224   92.8971   11.5537 C.ar    1  UNL1        0.0031
     31 C          65.8227   92.8555   10.2854 C.ar    1  UNL1        0.0207
     32 C          64.4568   92.2357   10.2799 C.ar    1  UNL1        0.0988
     33 N          63.8905   91.6575   11.5428 N.ar    1  UNL1       -0.2441
     34 C          64.6902   91.6991   12.8111 C.ar    1  UNL1        0.0789
@<TRIPOS>BOND
     1     1     2    2
     2     4     2    1
     3     4     5    1
     4     5     6    1
     5     6     7    1
     6     7     8    1
     7     9     8    1
     8     9    10    1
     9    10    11    1
    10    11    12    1
    11    12    13   ar
    12    13    14   ar
    13    14    15    1
    14    14    16   ar
    15    16    17    1
    16    16    18   ar
    17    18    19   ar
    18     2     3   am
    19     3    24    1
    20    24    25    1
    21    25    26   ar
    22    26    27   ar
    23    27    28   ar
    24    28    29   ar
    25    29    30   ar
    26    30    31   ar
    27    31    32   ar
    28    32    33   ar
    29    33    34   ar
    30     3    21    1
    31    21    22    1
    32    22    23    1
    33     9     4    1
    34    19    12   ar
    35    34    25   ar
    36    23    21    1
    37    19     9    1
    38    34    29   ar
    39     6    20    1
@<TRIPOS>MOLECULE
*****
 34 39 0 0 0
SMALL
GASTEIGER

@<TRIPOS>ATOM
      1 O          64.4152   88.1744   13.0480 O.2     1  UNL1       -0.2747
      2 C          63.1231   88.4206   12.3270 C.2     1  UNL1        0.2294
      3 N          62.3968   89.7200   12.5119 N.am    1  UNL1       -0.2769
      4 C          62.5572   87.3674   11.4211 C.3     1  UNL1        0.1211
      5 C          61.8604   87.7641   10.1534 C.3     1  UNL1        0.0804
      6 N          61.2945   86.7109    9.2476 N.3     1  UNL1       -0.2969
      7 C          61.4255   85.2611    9.6094 C.3     1  UNL1        0.0714
      8 C          62.1223   84.8645   10.8771 C.3     1  UNL1        0.0490
      9 C          62.6881   85.9176   11.7830 C.3     1  UNL1        0.1224
     10 O          63.3009   86.8536   12.7823 O.3     1  UNL1       -0.3492
     11 C          63.8860   86.0299   13.8909 C.3     1  UNL1        0.1687
     12 C          63.6349   84.5847   13.5768 C.ar    1  UNL1        0.0079
     13 C          63.9847   83.3231   14.3087 C.ar    1  UNL1        0.0299
     14 C          63.5942   81.9920   13.7380 C.ar    1  UNL1        0.1671
     15 F          63.9440   80.7304   14.4699 F       1  UNL1       -0.2018
     16 C          62.8539   81.9227   12.4352 C.ar    1  UNL1        0.1671
     17 F          62.4635   80.5916   11.8644 F       1  UNL1       -0.2018
     18 C          62.5041   83.1844   11.7032 C.ar    1  UNL1        0.0297
     19 C          62.8946   84.5154   12.2740 C.ar    1  UNL1        0.0033
     20 H          61.7452   86.8298    8.3403 H       1  UNL1        0.1233
     21 C          61.1047   89.9662   11.7909 C.3     1  UNL1        0.0758
     22 C          60.3648   90.4553   10.5812 C.3     1  UNL1        0.0215
     23 C          59.6065   89.9034   11.7518 C.3     1  UNL1        0.0215
     24 C          62.9626   90.7732   13.4178 C.3     1  UNL1        0.1215
     25 C          64.1707   91.5556   12.9954 C.ar    1  UNL1        0.0153
     26 C          64.4156   91.8305   11.5413 C.ar    1  UNL1       -0.0011
     27 C          65.6236   92.6129   11.1190 C.ar    1  UNL1       -0.0002
     28 C          66.5868   93.1205   12.1507 C.ar    1  UNL1        0.0015
     29 C          66.3420   92.8457   13.6049 C.ar    1  UNL1        0.0174
     30 C          67.3052   93.3533   14.6366 C.ar    1  UNL1        0.0031
     31 C          67.0603   93.0784   16.0907 C.ar    1  UNL1        0.0207
     32 C          65.8523   92.2960   16.5131 C.ar    1  UNL1        0.0988
     33 N          64.8891   91.7884   15.4814 N.ar    1  UNL1       -0.2441
     34 C          65.1339   92.0632   14.0273 C.ar    1  UNL1        0.0789
@<TRIPOS>BOND
     1     1     2    2
     2     4     2    1
     3     4     5    1
     4     5     6    1
     5     6     7    1
     6     7     8    1
     7     9     8    1
     8     9    10    1
     9    10    11    1
    10    11    12    1
    11    12    13   ar
    12    13    14   ar
    13    14    15    1
    14    14    16   ar
    15    16    17    1
    16    16    18   ar
    17    18    19   ar
    18     2     3   am
    19     3    24    1
    20    24    25    1
    21    25    26   ar
    22    26    27   ar
    23    27    28   ar
    24    28    29   ar
    25    29    30   ar
    26    30    31   ar
    27    31    32   ar
    28    32    33   ar
    29    33    34   ar
    30     3    21    1
    31    21    22    1
    32    22    23    1
    33     9     4    1
    34    19    12   ar
    35    34    25   ar
    36    23    21    1
    37    19     9    1
    38    34    29   ar
    39     6    20    1
@<TRIPOS>MOLECULE
*****
 34 39 0 0 0
SMALL
GASTEIGER

@<TRIPOS>ATOM
      1 O          63.6385   87.7405   12.7830 O.2     1  UNL1       -0.2747
      2 C          62.8379   88.4376   11.7234 C.2     1  UNL1        0.2294
      3 N          61.6426   87.7615   11.1200 N.am    1  UNL1       -0.2769
      4 C          63.2325   89.8110   11.2671 C.3     1  UNL1        0.1211
      5 C          62.7992   90.3070    9.9194 C.3     1  UNL1        0.0804
      6 N          63.1938   91.6803    9.4632 N.3     1  UNL1       -0.2969
      7 C          64.0218   92.5577   10.3546 C.3     1  UNL1        0.0714
      8 C          64.4551   92.0617   11.7023 C.3     1  UNL1        0.0490
      9 C          64.0605   90.6884   12.1585 C.3     1  UNL1        0.1224
     10 O          63.7442   89.3455   12.7474 O.3     1  UNL1       -0.3492
     11 C          64.3744   89.2754   14.1068 C.3     1  UNL1        0.1687
     12 C          65.0804   90.5749   14.3580 C.ar    1  UNL1        0.0079
     13 C          65.8747   91.0758   15.5276 C.ar    1  UNL1        0.0299
     14 C          66.4751   92.4501   15.4932 C.ar    1  UNL1        0.1671
     15 F          67.2694   92.9510   16.6628 F       1  UNL1       -0.2018
     16 C          66.2810   93.3233   14.2891 C.ar    1  UNL1        0.1671
     17 F          66.8814   94.6974   14.2547 F       1  UNL1       -0.2018
     18 C          65.4867   92.8224   13.1194 C.ar    1  UNL1        0.0297
     19 C          64.8863   91.4482   13.1539 C.ar    1  UNL1        0.0033
     20 H          62.3293   92.1868    9.2721 H       1  UNL1        0.1233
     21 C          60.8419   88.4587   10.0603 C.3     1  UNL1        0.0758
     22 C          60.2870   88.4992    8.6673 C.3     1  UNL1        0.0215
     23 C          60.0101   89.6259    9.6179 C.3     1  UNL1        0.0215
     24 C          61.2480   86.3882   11.5762 C.3     1  UNL1        0.1215
     25 C          62.1882   85.2352   11.3849 C.ar    1  UNL1        0.0153
     26 C          62.6679   84.8790   10.0090 C.ar    1  UNL1       -0.0011
     27 C          63.6081   83.7260    9.8176 C.ar    1  UNL1       -0.0002
     28 C          64.0687   82.9293   11.0021 C.ar    1  UNL1        0.0015
     29 C          63.5891   83.2855   12.3781 C.ar    1  UNL1        0.0174
     30 C          64.0497   82.4888   13.5625 C.ar    1  UNL1        0.0031
     31 C          63.5700   82.8450   14.9384 C.ar    1  UNL1        0.0207
     32 C          62.6298   83.9980   15.1297 C.ar    1  UNL1        0.0988
     33 N          62.1692   84.7947   13.9453 N.ar    1  UNL1       -0.2441
     34 C          62.6488   84.4385   12.5694 C.ar    1  UNL1        0.0789
@<TRIPOS>BOND
     1     1     2    2
     2     4     2    1
     3     4     5    1
     4     5     6    1
     5     6     7    1
     6     7     8    1
     7     9     8    1
     8     9    10    1
     9    10    11    1
    10    11    12    1
    11    12    13   ar
    12    13    14   ar
    13    14    15    1
    14    14    16   ar
    15    16    17    1
    16    16    18   ar
    17    18    19   ar
    18     2     3   am
    19     3    24    1
    20    24    25    1
    21    25    26   ar
    22    26    27   ar
    23    27    28   ar
    24    28    29   ar
    25    29    30   ar
    26    30    31   ar
    27    31    32   ar
    28    32    33   ar
    29    33    34   ar
    30     3    21    1
    31    21    22    1
    32    22    23    1
    33     9     4    1
    34    19    12   ar
    35    34    25   ar
    36    23    21    1
    37    19     9    1
    38    34    29   ar
    39     6    20    1
@<TRIPOS>MOLECULE
*****
 34 39 0 0 0
SMALL
GASTEIGER

@<TRIPOS>ATOM
      1 O          58.2587   92.0353   -3.4343 O.2     1  UNL1       -0.2747
      2 C          58.6577   93.3921   -2.9346 C.2     1  UNL1        0.2294
      3 N          57.6329   94.2933   -2.3121 N.am    1  UNL1       -0.2769
      4 C          60.0815   93.8479   -3.0576 C.3     1  UNL1        0.1211
      5 C          60.5407   94.5459   -4.3033 C.3     1  UNL1        0.0804
      6 N          61.9645   95.0016   -4.4261 N.3     1  UNL1       -0.2969
      7 C          62.9291   94.7593   -3.3033 C.3     1  UNL1        0.0714
      8 C          62.4699   94.0612   -2.0576 C.3     1  UNL1        0.0490
      9 C          61.0462   93.6055   -1.9347 C.3     1  UNL1        0.1224
     10 O          59.6606   93.0955   -1.6695 O.3     1  UNL1       -0.3492
     11 C          59.6500   92.4697   -0.3064 C.3     1  UNL1        0.1687
     12 C          61.0290   92.5928    0.2710 C.ar    1  UNL1        0.0079
     13 C          61.6104   92.1565    1.5830 C.ar    1  UNL1        0.0299
     14 C          63.0548   92.4221    1.8887 C.ar    1  UNL1        0.1671
     15 F          63.6362   91.9858    3.2007 F       1  UNL1       -0.2018
     16 C          63.9176   93.1241    0.8824 C.ar    1  UNL1        0.1671
     17 F          65.3619   93.3897    1.1880 F       1  UNL1       -0.2018
     18 C          63.3362   93.5605   -0.4297 C.ar    1  UNL1        0.0297
     19 C          61.8919   93.2948   -0.7354 C.ar    1  UNL1        0.0033
     20 H          61.9388   96.0097   -4.5798 H       1  UNL1        0.1233
     21 C          58.0319   95.6503   -1.8124 C.3     1  UNL1        0.0758
     22 C          58.9203   96.8560   -1.8963 C.3     1  UNL1        0.0215
     23 C          57.8346   96.7948   -0.8632 C.3     1  UNL1        0.0215
     24 C          56.2091   93.8377   -2.1891 C.3     1  UNL1        0.1215
     25 C          55.0902   94.7639   -2.5635 C.ar    1  UNL1        0.0153
     26 C          54.2278   95.3684   -1.4954 C.ar    1  UNL1       -0.0011
     27 C          53.1089   96.2947   -1.8697 C.ar    1  UNL1       -0.0002
     28 C          52.8524   96.6164   -3.3122 C.ar    1  UNL1        0.0015
     29 C          53.7147   96.0118   -4.3803 C.ar    1  UNL1        0.0174
     30 C          53.4582   96.3336   -5.8228 C.ar    1  UNL1        0.0031
     31 C          54.3206   95.7290   -6.8908 C.ar    1  UNL1        0.0207
     32 C          55.4395   94.8028   -6.5165 C.ar    1  UNL1        0.0988
     33 N          55.6960   94.4811   -5.0741 N.ar    1  UNL1       -0.2441
     34 C          54.8337   95.0856   -4.0060 C.ar    1  UNL1        0.0789
@<TRIPOS>BOND
     1     1     2    2
     2     4     2    1
     3     4     5    1
     4     5     6    1
     5     6     7    1
     6     7     8    1
     7     9     8    1
     8     9    10    1
     9    10    11    1
    10    11    12    1
    11    12    13   ar
    12    13    14   ar
    13    14    15    1
    14    14    16   ar
    15    16    17    1
    16    16    18   ar
    17    18    19   ar
    18     2     3   am
    19     3    24    1
    20    24    25    1
    21    25    26   ar
    22    26    27   ar
    23    27    28   ar
    24    28    29   ar
    25    29    30   ar
    26    30    31   ar
    27    31    32   ar
    28    32    33   ar
    29    33    34   ar
    30     3    21    1
    31    21    22    1
    32    22    23    1
    33     9     4    1
    34    19    12   ar
    35    34    25   ar
    36    23    21    1
    37    19     9    1
    38    34    29   ar
    39     6    20    1
@<TRIPOS>MOLECULE
*****
 34 39 0 0 0
SMALL
GASTEIGER

@<TRIPOS>ATOM
      1 O          63.4779   87.7810   13.9319 O.2     1  UNL1       -0.2747
      2 C          63.0383   87.8106   12.4981 C.2     1  UNL1        0.2294
      3 N          62.5720   86.5508   11.8305 N.am    1  UNL1       -0.2769
      4 C          63.0648   89.0999   11.7319 C.3     1  UNL1        0.1211
      5 C          62.2528   89.2446   10.4791 C.3     1  UNL1        0.0804
      6 N          62.2794   90.5338    9.7129 N.3     1  UNL1       -0.2969
      7 C          63.1181   91.6783   10.1995 C.3     1  UNL1        0.0714
      8 C          63.9301   91.5336   11.4523 C.3     1  UNL1        0.0490
      9 C          63.9035   90.2443   12.2185 C.3     1  UNL1        0.1224
     10 O          63.9767   89.0224   13.0856 O.3     1  UNL1       -0.3492
     11 C          64.9033   89.3190   14.2272 C.3     1  UNL1        0.1687
     12 C          65.4029   90.7241   14.0658 C.ar    1  UNL1        0.0079
     13 C          66.3406   91.5567   14.8888 C.ar    1  UNL1        0.0299
     14 C          66.6604   92.9613   14.4705 C.ar    1  UNL1        0.1671
     15 F          67.5981   93.7939   15.2934 F       1  UNL1       -0.2018
     16 C          66.0425   93.5332   13.2290 C.ar    1  UNL1        0.1671
     17 F          66.3623   94.9377   12.8107 F       1  UNL1       -0.2018
     18 C          65.1047   92.7006   12.4059 C.ar    1  UNL1        0.0297
     19 C          64.7849   91.2960   12.8243 C.ar    1  UNL1        0.0033
     20 H          61.3176   90.8709    9.6701 H       1  UNL1        0.1233
     21 C          62.1323   86.5804   10.3967 C.3     1  UNL1        0.0758
     22 C          62.4682   86.6353    8.9358 C.3     1  UNL1        0.0215
     23 C          61.0349   86.5767    9.3741 C.3     1  UNL1        0.0215
     24 C          62.5454   85.2616   12.5967 C.3     1  UNL1        0.1215
     25 C          62.9559   83.9831   11.9281 C.ar    1  UNL1        0.0153
     26 C          63.7296   84.0234   10.6437 C.ar    1  UNL1       -0.0011
     27 C          64.1402   82.7449    9.9750 C.ar    1  UNL1       -0.0002
     28 C          63.7771   81.4263   10.5908 C.ar    1  UNL1        0.0015
     29 C          63.0033   81.3860   11.8753 C.ar    1  UNL1        0.0174
     30 C          62.6402   80.0674   12.4911 C.ar    1  UNL1        0.0031
     31 C          61.8666   80.0271   13.7755 C.ar    1  UNL1        0.0207
     32 C          61.4560   81.3056   14.4441 C.ar    1  UNL1        0.0988
     33 N          61.8191   82.6242   13.8284 N.ar    1  UNL1       -0.2441
     34 C          62.5928   82.6644   12.5439 C.ar    1  UNL1        0.0789
@<TRIPOS>BOND
     1     1     2    2
     2     4     2    1
     3     4     5    1
     4     5     6    1
     5     6     7    1
     6     7     8    1
     7     9     8    1
     8     9    10    1
     9    10    11    1
    10    11    12    1
    11    12    13   ar
    12    13    14   ar
    13    14    15    1
    14    14    16   ar
    15    16    17    1
    16    16    18   ar
    17    18    19   ar
    18     2     3   am
    19     3    24    1
    20    24    25    1
    21    25    26   ar
    22    26    27   ar
    23    27    28   ar
    24    28    29   ar
    25    29    30   ar
    26    30    31   ar
    27    31    32   ar
    28    32    33   ar
    29    33    34   ar
    30     3    21    1
    31    21    22    1
    32    22    23    1
    33     9     4    1
    34    19    12   ar
    35    34    25   ar
    36    23    21    1
    37    19     9    1
    38    34    29   ar
    39     6    20    1
@<TRIPOS>MOLECULE
*****
 34 39 0 0 0
SMALL
GASTEIGER

@<TRIPOS>ATOM
      1 O          60.4813   91.6099   -0.3658 O.2     1  UNL1       -0.2747
      2 C          60.5699   93.0668   -0.0200 C.2     1  UNL1        0.2294
      3 N          59.3311   93.9125   -0.0121 N.am    1  UNL1       -0.2769
      4 C          61.8974   93.6780    0.3179 C.3     1  UNL1        0.1211
      5 C          62.3977   93.6506    1.7317 C.3     1  UNL1        0.0804
      6 N          63.7251   94.2619    2.0695 N.3     1  UNL1       -0.2969
      7 C          64.5524   94.9005    0.9935 C.3     1  UNL1        0.0714
      8 C          64.0522   94.9279   -0.4203 C.3     1  UNL1        0.0490
      9 C          62.7247   94.3167   -0.7581 C.3     1  UNL1        0.1224
     10 O          61.4242   93.7490   -1.2445 O.3     1  UNL1       -0.3492
     11 C          61.3328   93.9980   -2.7208 C.3     1  UNL1        0.1687
     12 C          62.5769   94.7196   -3.1470 C.ar    1  UNL1        0.0079
     13 C          63.0375   95.2228   -4.4828 C.ar    1  UNL1        0.0299
     14 C          64.3584   95.9230   -4.6058 C.ar    1  UNL1        0.1671
     15 F          64.8191   96.4262   -5.9416 F       1  UNL1       -0.2018
     16 C          65.2186   96.1200   -3.3928 C.ar    1  UNL1        0.1671
     17 F          66.5394   96.8201   -3.5157 F       1  UNL1       -0.2018
     18 C          64.7580   95.6168   -2.0569 C.ar    1  UNL1        0.0297
     19 C          63.4371   94.9166   -1.9340 C.ar    1  UNL1        0.0033
     20 H          64.2949   93.5212    2.4784 H       1  UNL1        0.1233
     21 C          59.4197   95.3694    0.3337 C.3     1  UNL1        0.0758
     22 C          59.1244   96.8029    0.0052 C.3     1  UNL1        0.0215
     23 C          59.8687   96.4594    1.2613 C.3     1  UNL1        0.0215
     24 C          58.0036   93.3013   -0.3500 C.3     1  UNL1        0.1215
     25 C          57.4986   93.3380   -1.7619 C.ar    1  UNL1        0.0153
     26 C          57.9996   92.3405   -2.7638 C.ar    1  UNL1       -0.0011
     27 C          57.4946   92.3773   -4.1758 C.ar    1  UNL1       -0.0002
     28 C          56.4885   93.4115   -4.5858 C.ar    1  UNL1        0.0015
     29 C          55.9874   94.4090   -3.5838 C.ar    1  UNL1        0.0174
     30 C          54.9813   95.4432   -3.9939 C.ar    1  UNL1        0.0031
     31 C          54.4802   96.4407   -2.9919 C.ar    1  UNL1        0.0207
     32 C          54.9853   96.4040   -1.5800 C.ar    1  UNL1        0.0988
     33 N          55.9914   95.3698   -1.1700 N.ar    1  UNL1       -0.2441
     34 C          56.4924   94.3723   -2.1719 C.ar    1  UNL1        0.0789
@<TRIPOS>BOND
     1     1     2    2
     2     4     2    1
     3     4     5    1
     4     5     6    1
     5     6     7    1
     6     7     8    1
     7     9     8    1
     8     9    10    1
     9    10    11    1
    10    11    12    1
    11    12    13   ar
    12    13    14   ar
    13    14    15    1
    14    14    16   ar
    15    16    17    1
    16    16    18   ar
    17    18    19   ar
    18     2     3   am
    19     3    24    1
    20    24    25    1
    21    25    26   ar
    22    26    27   ar
    23    27    28   ar
    24    28    29   ar
    25    29    30   ar
    26    30    31   ar
    27    31    32   ar
    28    32    33   ar
    29    33    34   ar
    30     3    21    1
    31    21    22    1
    32    22    23    1
    33     9     4    1
    34    19    12   ar
    35    34    25   ar
    36    23    21    1
    37    19     9    1
    38    34    29   ar
    39     6    20    1
@<TRIPOS>MOLECULE
*****
 34 39 0 0 0
SMALL
GASTEIGER

@<TRIPOS>ATOM
      1 O          62.4688   90.2635   11.9222 O.2     1  UNL1       -0.2747
      2 C          63.5536   90.5907   12.9050 C.2     1  UNL1        0.2294
      3 N          64.6918   91.4788   12.4977 N.am    1  UNL1       -0.2769
      4 C          63.5004   90.0297   14.2952 C.3     1  UNL1        0.1211
      5 C          63.4503   90.9540   15.4755 C.3     1  UNL1        0.0804
      6 N          63.3971   90.3931   16.8656 N.3     1  UNL1       -0.2969
      7 C          63.3940   88.9078   17.0754 C.3     1  UNL1        0.0714
      8 C          63.4441   87.9835   15.8951 C.3     1  UNL1        0.0490
      9 C          63.4973   88.5445   14.5050 C.3     1  UNL1        0.1224
     10 O          63.5531   88.9569   13.0638 O.3     1  UNL1       -0.3492
     11 C          63.5907   87.7128   12.2267 C.3     1  UNL1        0.1687
     12 C          63.5582   86.5314   13.1505 C.ar    1  UNL1        0.0079
     13 C          63.5737   85.0541   12.8914 C.ar    1  UNL1        0.0299
     14 C          63.5314   84.0906   14.0404 C.ar    1  UNL1        0.1671
     15 F          63.5469   82.6133   13.7814 F       1  UNL1       -0.2018
     16 C          63.4737   84.6046   15.4484 C.ar    1  UNL1        0.1671
     17 F          63.4315   83.6413   16.5973 F       1  UNL1       -0.2018
     18 C          63.4582   86.0821   15.7075 C.ar    1  UNL1        0.0297
     19 C          63.5005   87.0454   14.5585 C.ar    1  UNL1        0.0033
     20 H          62.5453   90.7530   17.2959 H       1  UNL1        0.1233
     21 C          65.7767   91.8060   13.4806 C.3     1  UNL1        0.0758
     22 C          66.5953   92.8212   14.2216 C.3     1  UNL1        0.0215
     23 C          66.8372   91.3573   14.4418 C.3     1  UNL1        0.0215
     24 C          64.7450   92.0397   11.1075 C.3     1  UNL1        0.1215
     25 C          66.0477   92.5250   10.5440 C.ar    1  UNL1        0.0153
     26 C          67.1856   91.5666   10.3529 C.ar    1  UNL1       -0.0011
     27 C          68.4883   92.0518    9.7893 C.ar    1  UNL1       -0.0002
     28 C          68.6530   93.4954    9.4168 C.ar    1  UNL1        0.0015
     29 C          67.5151   94.4539    9.6079 C.ar    1  UNL1        0.0174
     30 C          67.6798   95.8975    9.2354 C.ar    1  UNL1        0.0031
     31 C          66.5419   96.8559    9.4265 C.ar    1  UNL1        0.0207
     32 C          65.2392   96.3707    9.9901 C.ar    1  UNL1        0.0988
     33 N          65.0745   94.9270   10.3626 N.ar    1  UNL1       -0.2441
     34 C          66.2124   93.9687   10.1715 C.ar    1  UNL1        0.0789
@<TRIPOS>BOND
     1     1     2    2
     2     4     2    1
     3     4     5    1
     4     5     6    1
     5     6     7    1
     6     7     8    1
     7     9     8    1
     8     9    10    1
     9    10    11    1
    10    11    12    1
    11    12    13   ar
    12    13    14   ar
    13    14    15    1
    14    14    16   ar
    15    16    17    1
    16    16    18   ar
    17    18    19   ar
    18     2     3   am
    19     3    24    1
    20    24    25    1
    21    25    26   ar
    22    26    27   ar
    23    27    28   ar
    24    28    29   ar
    25    29    30   ar
    26    30    31   ar
    27    31    32   ar
    28    32    33   ar
    29    33    34   ar
    30     3    21    1
    31    21    22    1
    32    22    23    1
    33     9     4    1
    34    19    12   ar
    35    34    25   ar
    36    23    21    1
    37    19     9    1
    38    34    29   ar
    39     6    20    1
@<TRIPOS>MOLECULE
*****
 34 39 0 0 0
SMALL
GASTEIGER

@<TRIPOS>ATOM
      1 O          61.3291   88.9669   11.8941 O.2     1  UNL1       -0.2747
      2 C          62.4111   88.4399   12.7893 C.2     1  UNL1        0.2294
      3 N          62.7711   86.9842   12.7538 N.am    1  UNL1       -0.2769
      4 C          63.1332   89.3686   13.7199 C.3     1  UNL1        0.1211
      5 C          63.1054   89.1197   15.1988 C.3     1  UNL1        0.0804
      6 N          63.8275   90.0484   16.1294 N.3     1  UNL1       -0.2969
      7 C          64.5774   91.2261   15.5811 C.3     1  UNL1        0.0714
      8 C          64.6053   91.4750   14.1022 C.3     1  UNL1        0.0490
      9 C          63.8832   90.5463   13.1716 C.3     1  UNL1        0.1224
     10 O          63.2120   89.7087   12.1237 O.3     1  UNL1       -0.3492
     11 C          63.5011   90.3213   10.7853 C.3     1  UNL1        0.1687
     12 C          64.3510   91.5374   11.0060 C.ar    1  UNL1        0.0079
     13 C          64.9404   92.5361   10.0547 C.ar    1  UNL1        0.0299
     14 C          65.7660   93.6740   10.5780 C.ar    1  UNL1        0.1671
     15 F          66.3553   94.6726    9.6267 F       1  UNL1       -0.2018
     16 C          66.0021   93.8130   12.0527 C.ar    1  UNL1        0.1671
     17 F          66.8276   94.9508   12.5761 F       1  UNL1       -0.2018
     18 C          65.4127   92.8143   13.0042 C.ar    1  UNL1        0.0297
     19 C          64.5872   91.6765   12.4808 C.ar    1  UNL1        0.0033
     20 H          64.5026   89.4832   16.6443 H       1  UNL1        0.1233
     21 C          63.8532   86.4572   13.6491 C.3     1  UNL1        0.0758
     22 C          64.9000   85.4270   13.9541 C.3     1  UNL1        0.0215
     23 C          64.6807   86.5747   14.8946 C.3     1  UNL1        0.0215
     24 C          62.0491   86.0554   11.8233 C.3     1  UNL1        0.1215
     25 C          62.7066   84.7850   11.3720 C.ar    1  UNL1        0.0153
     26 C          63.3792   84.7233   10.0327 C.ar    1  UNL1       -0.0011
     27 C          64.0367   83.4528    9.5815 C.ar    1  UNL1       -0.0002
     28 C          64.0218   82.2441   10.4696 C.ar    1  UNL1        0.0015
     29 C          63.3492   82.3058   11.8090 C.ar    1  UNL1        0.0174
     30 C          63.3343   81.0971   12.6971 C.ar    1  UNL1        0.0031
     31 C          62.6617   81.1589   14.0364 C.ar    1  UNL1        0.0207
     32 C          62.0042   82.4293   14.4876 C.ar    1  UNL1        0.0988
     33 N          62.0191   83.6380   13.5995 N.ar    1  UNL1       -0.2441
     34 C          62.6916   83.5763   12.2602 C.ar    1  UNL1        0.0789
@<TRIPOS>BOND
     1     1     2    2
     2     4     2    1
     3     4     5    1
     4     5     6    1
     5     6     7    1
     6     7     8    1
     7     9     8    1
     8     9    10    1
     9    10    11    1
    10    11    12    1
    11    12    13   ar
    12    13    14   ar
    13    14    15    1
    14    14    16   ar
    15    16    17    1
    16    16    18   ar
    17    18    19   ar
    18     2     3   am
    19     3    24    1
    20    24    25    1
    21    25    26   ar
    22    26    27   ar
    23    27    28   ar
    24    28    29   ar
    25    29    30   ar
    26    30    31   ar
    27    31    32   ar
    28    32    33   ar
    29    33    34   ar
    30     3    21    1
    31    21    22    1
    32    22    23    1
    33     9     4    1
    34    19    12   ar
    35    34    25   ar
    36    23    21    1
    37    19     9    1
    38    34    29   ar
    39     6    20    1
@<TRIPOS>MOLECULE
*****
 34 39 0 0 0
SMALL
GASTEIGER

@<TRIPOS>ATOM
      1 O          65.2826   85.1356   13.1118 O.2     1  UNL1       -0.2747
      2 C          64.3261   85.7762   14.0733 C.2     1  UNL1        0.2294
      3 N          63.6642   84.9496   15.1357 N.am    1  UNL1       -0.2769
      4 C          64.0313   87.2436   13.9725 C.3     1  UNL1        0.1211
      5 C          64.6312   88.1987   14.9613 C.3     1  UNL1        0.0804
      6 N          64.3364   89.6660   14.8605 N.3     1  UNL1       -0.2969
      7 C          63.4418   90.1781   13.7708 C.3     1  UNL1        0.0714
      8 C          62.8420   89.2230   12.7819 C.3     1  UNL1        0.0490
      9 C          63.1368   87.7557   12.8828 C.3     1  UNL1        0.1224
     10 O          63.3397   86.2696   12.8576 O.3     1  UNL1       -0.3492
     11 C          62.5570   85.7144   11.7047 C.3     1  UNL1        0.1687
     12 C          61.8703   86.8572   11.0173 C.ar    1  UNL1        0.0079
     13 C          60.9652   86.9121    9.8226 C.ar    1  UNL1        0.0299
     14 C          60.4182   88.2285    9.3558 C.ar    1  UNL1        0.1671
     15 F          59.5130   88.2834    8.1611 F       1  UNL1       -0.2018
     16 C          60.7765   89.4901   10.0839 C.ar    1  UNL1        0.1671
     17 F          60.2296   90.8065    9.6171 F       1  UNL1       -0.2018
     18 C          61.6817   89.4353   11.2787 C.ar    1  UNL1        0.0297
     19 C          62.2287   88.1188   11.7454 C.ar    1  UNL1        0.0033
     20 H          65.2332   90.1397   14.7522 H       1  UNL1        0.1233
     21 C          62.7075   85.5903   16.0972 C.3     1  UNL1        0.0758
     22 C          61.3077   85.9749   16.4748 C.3     1  UNL1        0.0215
     23 C          62.4505   86.3154   17.3848 C.3     1  UNL1        0.0215
     24 C          63.9588   83.4823   15.2365 C.3     1  UNL1        0.1215
     25 C          63.1444   82.4980   14.4505 C.ar    1  UNL1        0.0153
     26 C          62.0352   81.7401   15.1176 C.ar    1  UNL1       -0.0011
     27 C          61.2208   80.7558   14.3315 C.ar    1  UNL1       -0.0002
     28 C          61.5156   80.5293   12.8784 C.ar    1  UNL1        0.0015
     29 C          62.6250   81.2872   12.2112 C.ar    1  UNL1        0.0174
     30 C          62.9199   81.0608   10.7580 C.ar    1  UNL1        0.0031
     31 C          64.0291   81.8186   10.0909 C.ar    1  UNL1        0.0207
     32 C          64.8435   82.8029   10.8770 C.ar    1  UNL1        0.0988
     33 N          64.5487   83.0294   12.3301 N.ar    1  UNL1       -0.2441
     34 C          63.4394   82.2715   12.9972 C.ar    1  UNL1        0.0789
@<TRIPOS>BOND
     1     1     2    2
     2     4     2    1
     3     4     5    1
     4     5     6    1
     5     6     7    1
     6     7     8    1
     7     9     8    1
     8     9    10    1
     9    10    11    1
    10    11    12    1
    11    12    13   ar
    12    13    14   ar
    13    14    15    1
    14    14    16   ar
    15    16    17    1
    16    16    18   ar
    17    18    19   ar
    18     2     3   am
    19     3    24    1
    20    24    25    1
    21    25    26   ar
    22    26    27   ar
    23    27    28   ar
    24    28    29   ar
    25    29    30   ar
    26    30    31   ar
    27    31    32   ar
    28    32    33   ar
    29    33    34   ar
    30     3    21    1
    31    21    22    1
    32    22    23    1
    33     9     4    1
    34    19    12   ar
    35    34    25   ar
    36    23    21    1
    37    19     9    1
    38    34    29   ar
    39     6    20    1
