@<TRIPOS>MOLECULE
*****
 25 27 0 0 0
SMALL
GASTEIGER

@<TRIPOS>ATOM
      1 N          66.1335   93.6182   13.0850 N.ar    1  UNL1       -0.3165
      2 C          66.8721   93.8774   14.3646 C.ar    1  UNL1        0.0779
      3 C          66.5795   92.7468   15.3058 C.ar    1  UNL1        0.0392
      4 C          65.6601   91.7888   14.6080 C.ar    1  UNL1        0.0985
      5 N          65.0383   90.4956   15.0451 N.ar    1  UNL1       -0.2423
      6 C          64.1409   89.7411   14.1096 C.ar    1  UNL1        0.1004
      7 C          63.8652   90.2797   12.7370 C.ar    1  UNL1        0.0382
      8 C          64.4870   91.5728   12.3000 C.ar    1  UNL1        0.0218
      9 C          65.3845   92.3274   13.2355 C.ar    1  UNL1        0.0783
     10 C          62.9677   89.5250   11.8015 C.ar    1  UNL1        0.0827
     11 C          62.1541   90.2657   10.7821 C.ar    1  UNL1        0.0192
     12 C          61.2566   89.5110    9.8466 C.ar    1  UNL1        0.0030
     13 C          61.1728   88.0157    9.9306 C.ar    1  UNL1        0.0231
     14 C          61.9865   87.2751   10.9501 C.ar    1  UNL1        0.1526
     15 N          62.8840   88.0297   11.8856 N.ar    1  UNL1       -0.2413
     16 C          61.9027   85.7798   11.0341 C.3     1  UNL1        0.4348
     17 F          61.8190   84.2845   11.1182 F       1  UNL1       -0.1644
     18 F          60.9223   85.7709    9.8989 F       1  UNL1       -0.1644
     19 F          62.8831   85.7886   12.1694 F       1  UNL1       -0.1644
     20 C          66.1424   94.4958   11.8685 C.3     1  UNL1        0.1920
     21 C          67.6770   94.5345    8.2088 C.3     1  UNL1        0.1150
     22 N          66.9056   94.9487    9.4267 N.am    1  UNL1       -0.2744
     23 C          66.1258   96.2301    9.4207 C.3     1  UNL1        0.1150
     24 C          66.9139   94.0815   10.6505 C.2     1  UNL1        0.2488
     25 O          67.6937   92.8002   10.6565 O.2     1  UNL1       -0.2728
@<TRIPOS>BOND
     1    21    22    1
     2    22    23    1
     3    22    24   am
     4    24    25    2
     5    24    20    1
     6    20     1    1
     7     1     2   ar
     8     2     3   ar
     9     3     4   ar
    10     4     5   ar
    11     5     6   ar
    12     6     7   ar
    13     7    10    1
    14    10    11   ar
    15    11    12   ar
    16    12    13   ar
    17    13    14   ar
    18    14    16    1
    19    16    17    1
    20    16    18    1
    21    16    19    1
    22    14    15   ar
    23     7     8   ar
    24     8     9   ar
    25     9     1   ar
    26     9     4   ar
    27    15    10   ar
@<TRIPOS>MOLECULE
*****
 25 27 0 0 0
SMALL
GASTEIGER

@<TRIPOS>ATOM
      1 N          61.5750   86.4180    9.6293 N.ar    1  UNL1       -0.3165
      2 C          60.3058   86.3274    8.8351 C.ar    1  UNL1        0.0779
      3 C          59.6449   87.6737    8.8623 C.ar    1  UNL1        0.0392
      4 C          60.5057   88.5963    9.6733 C.ar    1  UNL1        0.0985
      5 N          60.3574   90.0429   10.0414 N.ar    1  UNL1       -0.2423
      6 C          61.4020   90.7134   10.8835 C.ar    1  UNL1        0.1004
      7 C          62.5949   89.9373   11.3575 C.ar    1  UNL1        0.0382
      8 C          62.7432   88.4908   10.9895 C.ar    1  UNL1        0.0218
      9 C          61.6986   87.8203   10.1474 C.ar    1  UNL1        0.0783
     10 C          63.6395   90.6079   12.1997 C.ar    1  UNL1        0.0827
     11 C          63.9926   90.0462   13.5449 C.ar    1  UNL1        0.0192
     12 C          65.0372   90.7167   14.3871 C.ar    1  UNL1        0.0030
     13 C          65.7288   91.9490   13.8839 C.ar    1  UNL1        0.0231
     14 C          65.3757   92.5108   12.5385 C.ar    1  UNL1        0.1526
     15 N          64.3311   91.8402   11.6965 N.ar    1  UNL1       -0.2413
     16 C          66.0672   93.7431   12.0353 C.3     1  UNL1        0.4348
     17 F          66.7587   94.9754   11.5322 F       1  UNL1       -0.1644
     18 F          66.3512   94.1604   13.4478 F       1  UNL1       -0.1644
     19 F          65.7832   93.3257   10.6229 F       1  UNL1       -0.1644
     20 C          62.5497   85.3023    9.8643 C.3     1  UNL1        0.1920
     21 C          63.7220   82.9292   12.8214 C.3     1  UNL1        0.1150
     22 N          63.5576   83.5041   11.4457 N.am    1  UNL1       -0.2744
     23 C          64.2365   82.8557   10.2758 C.3     1  UNL1        0.1150
     24 C          62.7141   84.7273   11.2400 C.2     1  UNL1        0.2488
     25 O          62.0352   85.3756   12.4099 O.2     1  UNL1       -0.2728
@<TRIPOS>BOND
     1    21    22    1
     2    22    23    1
     3    22    24   am
     4    24    25    2
     5    24    20    1
     6    20     1    1
     7     1     2   ar
     8     2     3   ar
     9     3     4   ar
    10     4     5   ar
    11     5     6   ar
    12     6     7   ar
    13     7    10    1
    14    10    11   ar
    15    11    12   ar
    16    12    13   ar
    17    13    14   ar
    18    14    16    1
    19    16    17    1
    20    16    18    1
    21    16    19    1
    22    14    15   ar
    23     7     8   ar
    24     8     9   ar
    25     9     1   ar
    26     9     4   ar
    27    15    10   ar
@<TRIPOS>MOLECULE
*****
 25 27 0 0 0
SMALL
GASTEIGER

@<TRIPOS>ATOM
      1 N          64.1816   85.2829   14.1192 N.ar    1  UNL1       -0.3165
      2 C          64.8181   86.1554   15.1602 C.ar    1  UNL1        0.0779
      3 C          64.5520   87.5851   14.7924 C.ar    1  UNL1        0.0392
      4 C          63.7512   87.5962   13.5241 C.ar    1  UNL1        0.0985
      5 N          63.2009   88.7180   12.6943 N.ar    1  UNL1       -0.2423
      6 C          62.4217   88.4170   11.4485 C.ar    1  UNL1        0.1004
      7 C          62.1928   86.9942   11.0324 C.ar    1  UNL1        0.0382
      8 C          62.7431   85.8723   11.8622 C.ar    1  UNL1        0.0218
      9 C          63.5223   86.1733   13.1080 C.ar    1  UNL1        0.0783
     10 C          61.4135   86.6933    9.7865 C.ar    1  UNL1        0.0827
     11 C          60.0413   87.2705    9.6023 C.ar    1  UNL1        0.0192
     12 C          59.2620   86.9696    8.3564 C.ar    1  UNL1        0.0030
     13 C          59.8550   86.0914    7.2947 C.ar    1  UNL1        0.0231
     14 C          61.2272   85.5141    7.4789 C.ar    1  UNL1        0.1526
     15 N          62.0064   85.8150    8.7248 N.ar    1  UNL1       -0.2413
     16 C          61.8201   84.6359    6.4173 C.3     1  UNL1        0.4348
     17 F          62.4131   83.7577    5.3556 F       1  UNL1       -0.1644
     18 F          63.1976   84.9892    6.8943 F       1  UNL1       -0.1644
     19 F          60.4426   84.2826    5.9402 F       1  UNL1       -0.1644
     20 C          64.2011   83.7832   14.0937 C.3     1  UNL1        0.1920
     21 C          61.2934   81.0822   14.0872 C.3     1  UNL1        0.1150
     22 N          62.5109   81.8551   13.6744 N.am    1  UNL1       -0.2744
     23 C          63.2556   81.4730   12.4297 C.3     1  UNL1        0.1150
     24 C          62.9836   83.0102   14.5065 C.2     1  UNL1        0.2488
     25 O          62.2389   83.3924   15.7512 O.2     1  UNL1       -0.2728
@<TRIPOS>BOND
     1    21    22    1
     2    22    23    1
     3    22    24   am
     4    24    25    2
     5    24    20    1
     6    20     1    1
     7     1     2   ar
     8     2     3   ar
     9     3     4   ar
    10     4     5   ar
    11     5     6   ar
    12     6     7   ar
    13     7    10    1
    14    10    11   ar
    15    11    12   ar
    16    12    13   ar
    17    13    14   ar
    18    14    16    1
    19    16    17    1
    20    16    18    1
    21    16    19    1
    22    14    15   ar
    23     7     8   ar
    24     8     9   ar
    25     9     1   ar
    26     9     4   ar
    27    15    10   ar
@<TRIPOS>MOLECULE
*****
 25 27 0 0 0
SMALL
GASTEIGER

@<TRIPOS>ATOM
      1 N          62.1406   88.2091   10.9779 N.ar    1  UNL1       -0.3165
      2 C          62.6887   89.5228   11.4510 C.ar    1  UNL1        0.0779
      3 C          63.5034   89.2679   12.6844 C.ar    1  UNL1        0.0392
      4 C          63.4589   87.7967   12.9735 C.ar    1  UNL1        0.0985
      5 N          64.0765   86.9684   14.0609 N.ar    1  UNL1       -0.2423
      6 C          63.8518   85.4857   14.0936 C.ar    1  UNL1        0.1004
      7 C          63.0095   84.8313   13.0390 C.ar    1  UNL1        0.0382
      8 C          62.3919   85.6596   11.9516 C.ar    1  UNL1        0.0218
      9 C          62.6166   87.1423   11.9189 C.ar    1  UNL1        0.0783
     10 C          62.7849   83.3485   13.0717 C.ar    1  UNL1        0.0827
     11 C          62.3376   82.6856   14.3407 C.ar    1  UNL1        0.0192
     12 C          62.1130   81.2028   14.3735 C.ar    1  UNL1        0.0030
     13 C          62.3355   80.3831   13.1372 C.ar    1  UNL1        0.0231
     14 C          62.7828   81.0461   11.8681 C.ar    1  UNL1        0.1526
     15 N          63.0074   82.5288   11.8354 N.ar    1  UNL1       -0.2413
     16 C          63.0054   80.2263   10.6318 C.3     1  UNL1        0.4348
     17 F          63.2279   79.4066    9.3955 F       1  UNL1       -0.1644
     18 F          63.4486   81.4561    9.8962 F       1  UNL1       -0.1644
     19 F          62.5621   78.9966   11.3674 F       1  UNL1       -0.1644
     20 C          61.2694   87.9990    9.7750 C.3     1  UNL1        0.1920
     21 C          60.7885   85.2193    6.9836 C.3     1  UNL1        0.1150
     22 N          60.4851   86.3304    7.9445 N.am    1  UNL1       -0.2744
     23 C          59.0940   86.8841    8.0358 C.3     1  UNL1        0.1150
     24 C          61.5728   86.8878    8.8141 C.2     1  UNL1        0.2488
     25 O          62.9639   86.3341    8.7228 O.2     1  UNL1       -0.2728
@<TRIPOS>BOND
     1    21    22    1
     2    22    23    1
     3    22    24   am
     4    24    25    2
     5    24    20    1
     6    20     1    1
     7     1     2   ar
     8     2     3   ar
     9     3     4   ar
    10     4     5   ar
    11     5     6   ar
    12     6     7   ar
    13     7    10    1
    14    10    11   ar
    15    11    12   ar
    16    12    13   ar
    17    13    14   ar
    18    14    16    1
    19    16    17    1
    20    16    18    1
    21    16    19    1
    22    14    15   ar
    23     7     8   ar
    24     8     9   ar
    25     9     1   ar
    26     9     4   ar
    27    15    10   ar
@<TRIPOS>MOLECULE
*****
 25 27 0 0 0
SMALL
GASTEIGER

@<TRIPOS>ATOM
      1 N          62.6191   89.8173   11.7789 N.ar    1  UNL1       -0.3165
      2 C          61.7018   90.8613   11.2143 C.ar    1  UNL1        0.0779
      3 C          60.7204   90.1761   10.3103 C.ar    1  UNL1        0.0392
      4 C          61.0311   88.7086   10.3162 C.ar    1  UNL1        0.0985
      5 N          60.3971   87.5456    9.6123 N.ar    1  UNL1       -0.2423
      6 C          60.9366   86.1609    9.8161 C.ar    1  UNL1        0.1004
      7 C          62.1100   85.9392   10.7237 C.ar    1  UNL1        0.0382
      8 C          62.7440   87.1022   11.4276 C.ar    1  UNL1        0.0218
      9 C          62.2046   88.4869   11.2238 C.ar    1  UNL1        0.0783
     10 C          62.6495   84.5545   10.9275 C.ar    1  UNL1        0.0827
     11 C          63.6734   84.0016    9.9810 C.ar    1  UNL1        0.0192
     12 C          64.2128   82.6168   10.1848 C.ar    1  UNL1        0.0030
     13 C          63.7283   81.7850   11.3351 C.ar    1  UNL1        0.0231
     14 C          62.7044   82.3379   12.2816 C.ar    1  UNL1        0.1526
     15 N          62.1650   83.7226   12.0778 N.ar    1  UNL1       -0.2413
     16 C          62.2199   81.5060   13.4320 C.3     1  UNL1        0.4348
     17 F          61.7354   80.6741   14.5823 F       1  UNL1       -0.1644
     18 F          62.4206   80.2626   12.6173 F       1  UNL1       -0.1644
     19 F          62.0192   82.7494   14.2466 F       1  UNL1       -0.1644
     20 C          63.7519   90.0610   12.7314 C.3     1  UNL1        0.1920
     21 C          64.1348   91.4624   16.4246 C.3     1  UNL1        0.1150
     22 N          64.4179   91.1825   14.9784 N.am    1  UNL1       -0.2744
     23 C          65.6500   91.7439   14.3330 C.3     1  UNL1        0.1150
     24 C          63.4688   90.3410   14.1777 C.2     1  UNL1        0.2488
     25 O          62.2367   89.7796   14.8231 O.2     1  UNL1       -0.2728
@<TRIPOS>BOND
     1    21    22    1
     2    22    23    1
     3    22    24   am
     4    24    25    2
     5    24    20    1
     6    20     1    1
     7     1     2   ar
     8     2     3   ar
     9     3     4   ar
    10     4     5   ar
    11     5     6   ar
    12     6     7   ar
    13     7    10    1
    14    10    11   ar
    15    11    12   ar
    16    12    13   ar
    17    13    14   ar
    18    14    16    1
    19    16    17    1
    20    16    18    1
    21    16    19    1
    22    14    15   ar
    23     7     8   ar
    24     8     9   ar
    25     9     1   ar
    26     9     4   ar
    27    15    10   ar
@<TRIPOS>MOLECULE
*****
 25 27 0 0 0
SMALL
GASTEIGER

@<TRIPOS>ATOM
      1 N          63.7189   85.2844   15.1265 N.ar    1  UNL1       -0.3165
      2 C          62.9028   84.6645   16.2218 C.ar    1  UNL1        0.0779
      3 C          62.4184   85.7651   17.1185 C.ar    1  UNL1        0.0392
      4 C          62.9353   87.0652   16.5774 C.ar    1  UNL1        0.0985
      5 N          62.7778   88.4811   17.0467 N.ar    1  UNL1       -0.2423
      6 C          63.4242   89.5999   16.2848 C.ar    1  UNL1        0.1004
      7 C          64.2279   89.3028   15.0537 C.ar    1  UNL1        0.0382
      8 C          64.3853   87.8868   14.5844 C.ar    1  UNL1        0.0218
      9 C          63.7390   86.7680   15.3463 C.ar    1  UNL1        0.0783
     10 C          64.8742   90.4217   14.2918 C.ar    1  UNL1        0.0827
     11 C          64.2620   90.9096   13.0123 C.ar    1  UNL1        0.0192
     12 C          64.9083   92.0285   12.2505 C.ar    1  UNL1        0.0030
     13 C          66.1669   92.6594   12.7681 C.ar    1  UNL1        0.0231
     14 C          66.7791   92.1714   14.0476 C.ar    1  UNL1        0.1526
     15 N          66.1328   91.0526   14.8094 N.ar    1  UNL1       -0.2413
     16 C          68.0377   92.8024   14.5653 C.3     1  UNL1        0.4348
     17 F          69.2963   93.4333   15.0829 F       1  UNL1       -0.1644
     18 F          67.2261   93.6707   15.4803 F       1  UNL1       -0.1644
     19 F          68.8494   91.9340   13.6503 F       1  UNL1       -0.1644
     20 C          64.3961   84.5495   14.0078 C.3     1  UNL1        0.1920
     21 C          62.7379   81.6868   11.8157 C.3     1  UNL1        0.1150
     22 N          63.2416   83.0341   12.2412 N.am    1  UNL1       -0.2744
     23 C          63.0946   84.2132   11.3258 C.3     1  UNL1        0.1150
     24 C          63.8923   83.2022   13.5822 C.2     1  UNL1        0.2488
     25 O          64.0393   82.0230   14.4976 O.2     1  UNL1       -0.2728
@<TRIPOS>BOND
     1    21    22    1
     2    22    23    1
     3    22    24   am
     4    24    25    2
     5    24    20    1
     6    20     1    1
     7     1     2   ar
     8     2     3   ar
     9     3     4   ar
    10     4     5   ar
    11     5     6   ar
    12     6     7   ar
    13     7    10    1
    14    10    11   ar
    15    11    12   ar
    16    12    13   ar
    17    13    14   ar
    18    14    16    1
    19    16    17    1
    20    16    18    1
    21    16    19    1
    22    14    15   ar
    23     7     8   ar
    24     8     9   ar
    25     9     1   ar
    26     9     4   ar
    27    15    10   ar
@<TRIPOS>MOLECULE
*****
 25 27 0 0 0
SMALL
GASTEIGER

@<TRIPOS>ATOM
      1 N          63.7176   91.3485   10.8199 N.ar    1  UNL1       -0.3165
      2 C          64.4778   92.5904   10.4598 C.ar    1  UNL1        0.0779
      3 C          65.3590   92.9472   11.6201 C.ar    1  UNL1        0.0392
      4 C          65.1434   91.9258   12.6972 C.ar    1  UNL1        0.0985
      5 N          65.7398   91.7678   14.0644 N.ar    1  UNL1       -0.2423
      6 C          65.3217   90.6217   14.9371 C.ar    1  UNL1        0.1004
      7 C          64.3072   89.6337   14.4426 C.ar    1  UNL1        0.0382
      8 C          63.7109   89.7916   13.0754 C.ar    1  UNL1        0.0218
      9 C          64.1289   90.9377   12.2027 C.ar    1  UNL1        0.0783
     10 C          63.8891   88.4875   15.3154 C.ar    1  UNL1        0.0827
     11 C          63.2116   88.7520   16.6272 C.ar    1  UNL1        0.0192
     12 C          62.7935   87.6059   17.5000 C.ar    1  UNL1        0.0030
     13 C          63.0530   86.1953   17.0609 C.ar    1  UNL1        0.0231
     14 C          63.7305   85.9308   15.7489 C.ar    1  UNL1        0.1526
     15 N          64.1486   87.0769   14.8763 N.ar    1  UNL1       -0.2413
     16 C          63.9900   84.5202   15.3098 C.3     1  UNL1        0.4348
     17 F          64.2494   83.1096   14.8707 F       1  UNL1       -0.1644
     18 F          62.7238   84.0782   15.9816 F       1  UNL1       -0.1644
     19 F          65.2562   84.9622   14.6380 F       1  UNL1       -0.1644
     20 C          62.7210   90.6414    9.9500 C.3     1  UNL1        0.1920
     21 C          59.9710   88.0105   11.0751 C.3     1  UNL1        0.1150
     22 N          61.2167   88.5882   10.4715 N.am    1  UNL1       -0.2744
     23 C          62.2038   87.6908    9.7858 C.3     1  UNL1        0.1150
     24 C          61.4752   90.0635   10.5536 C.2     1  UNL1        0.2488
     25 O          60.4881   90.9609   11.2393 O.2     1  UNL1       -0.2728
@<TRIPOS>BOND
     1    21    22    1
     2    22    23    1
     3    22    24   am
     4    24    25    2
     5    24    20    1
     6    20     1    1
     7     1     2   ar
     8     2     3   ar
     9     3     4   ar
    10     4     5   ar
    11     5     6   ar
    12     6     7   ar
    13     7    10    1
    14    10    11   ar
    15    11    12   ar
    16    12    13   ar
    17    13    14   ar
    18    14    16    1
    19    16    17    1
    20    16    18    1
    21    16    19    1
    22    14    15   ar
    23     7     8   ar
    24     8     9   ar
    25     9     1   ar
    26     9     4   ar
    27    15    10   ar
@<TRIPOS>MOLECULE
*****
 25 27 0 0 0
SMALL
GASTEIGER

@<TRIPOS>ATOM
      1 N          62.4378   89.8723   11.5020 N.ar    1  UNL1       -0.3165
      2 C          61.6835   90.5728   10.4110 C.ar    1  UNL1        0.0779
      3 C          61.0559   89.5279    9.5367 C.ar    1  UNL1        0.0392
      4 C          61.4224   88.1816   10.0874 C.ar    1  UNL1        0.0985
      5 N          61.0888   86.7894    9.6398 N.ar    1  UNL1       -0.2423
      6 C          61.6092   85.6101   10.4067 C.ar    1  UNL1        0.1004
      7 C          62.4633   85.8230   11.6213 C.ar    1  UNL1        0.0382
      8 C          62.7969   87.2152   12.0690 C.ar    1  UNL1        0.0218
      9 C          62.2765   88.3945   11.3020 C.ar    1  UNL1        0.0783
     10 C          62.9837   84.6435   12.3883 C.ar    1  UNL1        0.0827
     11 C          63.8216   84.8565   13.6141 C.ar    1  UNL1        0.0192
     12 C          64.3420   83.6771   14.3810 C.ar    1  UNL1        0.0030
     13 C          64.0245   82.2847   13.9222 C.ar    1  UNL1        0.0231
     14 C          63.1866   82.0718   12.6963 C.ar    1  UNL1        0.1526
     15 N          62.6662   83.2512   11.9294 N.ar    1  UNL1       -0.2413
     16 C          62.8691   80.6794   12.2375 C.3     1  UNL1        0.4348
     17 F          62.5516   79.2871   11.7786 F       1  UNL1       -0.1644
     18 F          63.1059   81.0941   10.8155 F       1  UNL1       -0.1644
     19 F          62.6323   80.2648   13.6595 F       1  UNL1       -0.1644
     20 C          63.2168   90.5336   12.6001 C.3     1  UNL1        0.1920
     21 C          66.5689   92.6229   12.9851 C.3     1  UNL1        0.1150
     22 N          65.4012   91.7427   13.3191 N.am    1  UNL1       -0.2744
     23 C          65.2499   91.1914   14.7059 C.3     1  UNL1        0.1150
     24 C          64.3847   91.4138   12.2662 C.2     1  UNL1        0.2488
     25 O          64.5359   91.9651   10.8794 O.2     1  UNL1       -0.2728
@<TRIPOS>BOND
     1    21    22    1
     2    22    23    1
     3    22    24   am
     4    24    25    2
     5    24    20    1
     6    20     1    1
     7     1     2   ar
     8     2     3   ar
     9     3     4   ar
    10     4     5   ar
    11     5     6   ar
    12     6     7   ar
    13     7    10    1
    14    10    11   ar
    15    11    12   ar
    16    12    13   ar
    17    13    14   ar
    18    14    16    1
    19    16    17    1
    20    16    18    1
    21    16    19    1
    22    14    15   ar
    23     7     8   ar
    24     8     9   ar
    25     9     1   ar
    26     9     4   ar
    27    15    10   ar
@<TRIPOS>MOLECULE
*****
 25 27 0 0 0
SMALL
GASTEIGER

@<TRIPOS>ATOM
      1 N          63.2195   89.3863   12.2782 N.ar    1  UNL1       -0.3165
      2 C          63.5971   90.4119   13.3056 C.ar    1  UNL1        0.0779
      3 C          64.0666   89.6878   14.5325 C.ar    1  UNL1        0.0392
      4 C          63.9793   88.2147   14.2633 C.ar    1  UNL1        0.0985
      5 N          64.3088   87.0190   15.1069 N.ar    1  UNL1       -0.2423
      6 C          64.1149   85.6369   14.5572 C.ar    1  UNL1        0.1004
      7 C          63.5913   85.4506   13.1639 C.ar    1  UNL1        0.0382
      8 C          63.2618   86.6463   12.3204 C.ar    1  UNL1        0.0218
      9 C          63.4558   88.0284   12.8701 C.ar    1  UNL1        0.0783
     10 C          63.3974   84.0684   12.6142 C.ar    1  UNL1        0.0827
     11 C          64.0229   83.6873   11.3053 C.ar    1  UNL1        0.0192
     12 C          63.8290   82.3051   10.7556 C.ar    1  UNL1        0.0030
     13 C          63.0094   81.3042   11.5148 C.ar    1  UNL1        0.0231
     14 C          62.3838   81.6854   12.8238 C.ar    1  UNL1        0.1526
     15 N          62.5778   83.0675   13.3735 N.ar    1  UNL1       -0.2413
     16 C          61.5643   80.6845   13.5831 C.3     1  UNL1        0.4348
     17 F          60.7447   79.6836   14.3424 F       1  UNL1       -0.1644
     18 F          60.9337   81.7963   14.3682 F       1  UNL1       -0.1644
     19 F          62.1948   79.5727   12.7981 F       1  UNL1       -0.1644
     20 C          62.6975   89.6689   10.9007 C.3     1  UNL1        0.1920
     21 C          59.6226   87.6975    9.3487 C.3     1  UNL1        0.1150
     22 N          61.0294   88.0727    9.7091 N.am    1  UNL1       -0.2744
     23 C          62.1753   87.2268    9.2383 C.3     1  UNL1        0.1150
     24 C          61.2905   89.2937   10.5402 C.2     1  UNL1        0.2488
     25 O          60.1447   90.1396   11.0109 O.2     1  UNL1       -0.2728
@<TRIPOS>BOND
     1    21    22    1
     2    22    23    1
     3    22    24   am
     4    24    25    2
     5    24    20    1
     6    20     1    1
     7     1     2   ar
     8     2     3   ar
     9     3     4   ar
    10     4     5   ar
    11     5     6   ar
    12     6     7   ar
    13     7    10    1
    14    10    11   ar
    15    11    12   ar
    16    12    13   ar
    17    13    14   ar
    18    14    16    1
    19    16    17    1
    20    16    18    1
    21    16    19    1
    22    14    15   ar
    23     7     8   ar
    24     8     9   ar
    25     9     1   ar
    26     9     4   ar
    27    15    10   ar
