@<TRIPOS>MOLECULE
*****
 33 36 0 0 0
SMALL
GASTEIGER

@<TRIPOS>ATOM
      1 C          60.7088   86.4428    8.2003 C.ar    1  UNL1        0.1009
      2 C          59.4798   87.3021    8.2314 C.ar    1  UNL1        0.1103
      3 N          59.3659   88.4120    9.2340 N.ar    1  UNL1       -0.2422
      4 C          60.4810   88.6625   10.2054 C.ar    1  UNL1        0.0931
      5 C          60.3670   89.7724   11.2080 C.ar    1  UNL1        0.0765
      6 CL         59.1380   90.6318   11.2391 Cl      1  UNL1       -0.0806
      7 C          61.4821   90.0230   12.1794 C.ar    1  UNL1        0.0272
      8 C          62.7112   89.1637   12.1483 C.ar    1  UNL1        0.0460
      9 C          62.8252   88.0538   11.1457 C.ar    1  UNL1        0.0171
     10 C          61.7100   87.8032   10.1743 C.ar    1  UNL1        0.0338
     11 C          61.8239   86.6933    9.1717 C.ar    1  UNL1        0.0611
     12 N          60.9367   84.2230    6.1951 N.1     1  UNL1       -0.1907
     13 C          60.8228   85.3329    7.1977 C.1     1  UNL1        0.1032
     14 N          63.8263   89.4143   13.1197 N.pl3   1  UNL1       -0.3240
     15 H          64.6486   88.8747   13.0751 H       1  UNL1        0.1473
     16 C          63.6887   90.4870   14.1592 C.3     1  UNL1        0.1869
     17 C          64.9010   91.2329   14.6322 C.ar    1  UNL1        0.2334
     18 C          66.1440   91.2531   13.7930 C.ar    1  UNL1        0.0677
     19 C          67.3564   91.9990   14.2660 C.ar    1  UNL1        0.0122
     20 C          67.3257   92.7248   15.5784 C.ar    1  UNL1        0.0772
     21 C          66.0826   92.7047   16.4177 C.ar    1  UNL1        0.3014
     22 N          64.8703   91.9587   15.9446 N.ar    1  UNL1       -0.1592
     23 O          63.6272   91.9386   16.7839 O.co2   1  UNL1       -0.6190
     24 N          63.0530   85.8340    9.1406 N.pl3   1  UNL1       -0.3119
     25 H          63.7785   86.0353    8.5062 H       1  UNL1        0.1522
     26 C          63.1767   84.6679   10.0760 C.ar    1  UNL1        0.0493
     27 C          63.8109   83.3927    9.6051 C.ar    1  UNL1        0.0170
     28 C          63.9346   82.2266   10.5405 C.ar    1  UNL1        0.0318
     29 C          63.4241   82.3358   11.9468 C.ar    1  UNL1        0.1507
     30 F          63.5478   81.1697   12.8822 F       1  UNL1       -0.2033
     31 C          62.7901   83.6110   12.4176 C.ar    1  UNL1        0.0863
     32 CL         62.2796   83.7202   13.8239 Cl      1  UNL1       -0.0799
     33 C          62.6664   84.7771   11.4822 C.ar    1  UNL1        0.0283
@<TRIPOS>UNITY_ATOM_ATTR
22 1
charge 1
23 1
charge -1
@<TRIPOS>BOND
     1    12    13    3
     2    13     1    1
     3     1     2   ar
     4     2     3   ar
     5     3     4   ar
     6     4     5   ar
     7     5     6    1
     8     5     7   ar
     9     7     8   ar
    10     8    14    1
    11    14    16    1
    12    16    17    1
    13    17    18   ar
    14    18    19   ar
    15    19    20   ar
    16    20    21   ar
    17    21    22   ar
    18    22    23    1
    19     8     9   ar
    20     9    10   ar
    21    10    11   ar
    22    11    24    1
    23    24    26    1
    24    26    27   ar
    25    27    28   ar
    26    28    29   ar
    27    29    30    1
    28    29    31   ar
    29    31    32    1
    30    31    33   ar
    31    11     1   ar
    32    33    26   ar
    33    10     4   ar
    34    22    17   ar
    35    14    15    1
    36    24    25    1
@<TRIPOS>MOLECULE
*****
 33 36 0 0 0
SMALL
GASTEIGER

@<TRIPOS>ATOM
      1 C          60.2562   88.7644    9.7938 C.ar    1  UNL1        0.1009
      2 C          59.7644   88.4466    8.4129 C.ar    1  UNL1        0.1103
      3 N          60.2874   87.2412    7.6893 N.ar    1  UNL1       -0.2422
      4 C          61.3023   86.3537    8.3467 C.ar    1  UNL1        0.0931
      5 C          61.8253   85.1483    7.6232 C.ar    1  UNL1        0.0765
      6 CL         61.3334   84.8305    6.2422 Cl      1  UNL1       -0.0806
      7 C          62.8402   84.2607    8.2806 C.ar    1  UNL1        0.0272
      8 C          63.3321   84.5785    9.6616 C.ar    1  UNL1        0.0460
      9 C          62.8090   85.7839   10.3851 C.ar    1  UNL1        0.0171
     10 C          61.7941   86.6715    9.7277 C.ar    1  UNL1        0.0338
     11 C          61.2711   87.8768   10.4512 C.ar    1  UNL1        0.0611
     12 N          59.2101   91.1751   11.2409 N.1     1  UNL1       -0.1907
     13 C          59.7332   89.9698   10.5174 C.1     1  UNL1        0.1032
     14 N          64.3469   83.6909   10.3190 N.pl3   1  UNL1       -0.3240
     15 H          64.9465   83.1370    9.7686 H       1  UNL1        0.1473
     16 C          64.4483   83.6474   11.8150 C.3     1  UNL1        0.1869
     17 C          63.5078   82.7871   12.6057 C.ar    1  UNL1        0.2334
     18 C          63.3269   81.3431   12.2421 C.ar    1  UNL1        0.0677
     19 C          62.3863   80.4827   13.0328 C.ar    1  UNL1        0.0122
     20 C          61.6268   81.0664   14.1872 C.ar    1  UNL1        0.0772
     21 C          61.8078   82.5104   14.5508 C.ar    1  UNL1        0.3014
     22 N          62.7483   83.3707   13.7600 N.ar    1  UNL1       -0.1592
     23 O          62.9293   84.8146   14.1237 O.co2   1  UNL1       -0.6190
     24 N          61.7630   88.1946   11.8322 N.pl3   1  UNL1       -0.3119
     25 H          61.4641   87.6529   12.5980 H       1  UNL1        0.1522
     26 C          62.7102   89.3378   12.0464 C.ar    1  UNL1        0.0493
     27 C          63.0197   90.2768   10.9183 C.ar    1  UNL1        0.0170
     28 C          63.9669   91.4200   11.1325 C.ar    1  UNL1        0.0318
     29 C          64.6047   91.6242   12.4748 C.ar    1  UNL1        0.1507
     30 F          65.5519   92.7674   12.6889 F       1  UNL1       -0.2033
     31 C          64.2952   90.6852   13.6028 C.ar    1  UNL1        0.0863
     32 CL         64.9330   90.8893   14.9450 Cl      1  UNL1       -0.0799
     33 C          63.3480   89.5420   13.3886 C.ar    1  UNL1        0.0283
@<TRIPOS>UNITY_ATOM_ATTR
22 1
charge 1
23 1
charge -1
@<TRIPOS>BOND
     1    12    13    3
     2    13     1    1
     3     1     2   ar
     4     2     3   ar
     5     3     4   ar
     6     4     5   ar
     7     5     6    1
     8     5     7   ar
     9     7     8   ar
    10     8    14    1
    11    14    16    1
    12    16    17    1
    13    17    18   ar
    14    18    19   ar
    15    19    20   ar
    16    20    21   ar
    17    21    22   ar
    18    22    23    1
    19     8     9   ar
    20     9    10   ar
    21    10    11   ar
    22    11    24    1
    23    24    26    1
    24    26    27   ar
    25    27    28   ar
    26    28    29   ar
    27    29    30    1
    28    29    31   ar
    29    31    32    1
    30    31    33   ar
    31    11     1   ar
    32    33    26   ar
    33    10     4   ar
    34    22    17   ar
    35    14    15    1
    36    24    25    1
@<TRIPOS>MOLECULE
*****
 33 36 0 0 0
SMALL
GASTEIGER

@<TRIPOS>ATOM
      1 C          62.8764   82.8638   13.3293 C.ar    1  UNL1        0.1009
      2 C          62.3681   82.5665   14.7088 C.ar    1  UNL1        0.1103
      3 N          62.4332   83.6194   15.7752 N.ar    1  UNL1       -0.2422
      4 C          63.0067   84.9696   15.4620 C.ar    1  UNL1        0.0931
      5 C          63.0718   86.0225   16.5284 C.ar    1  UNL1        0.0765
      6 CL         62.5636   85.7252   17.9079 Cl      1  UNL1       -0.0806
      7 C          63.6453   87.3727   16.2152 C.ar    1  UNL1        0.0272
      8 C          64.1536   87.6700   14.8356 C.ar    1  UNL1        0.0460
      9 C          64.0885   86.6171   13.7692 C.ar    1  UNL1        0.0171
     10 C          63.5150   85.2669   14.0824 C.ar    1  UNL1        0.0338
     11 C          63.4498   84.2140   13.0161 C.ar    1  UNL1        0.0611
     12 N          62.7461   80.7580   11.1965 N.1     1  UNL1       -0.1907
     13 C          62.8112   81.8109   12.2629 C.1     1  UNL1        0.1032
     14 N          64.7271   89.0202   14.5224 N.pl3   1  UNL1       -0.3240
     15 H          65.7010   89.1607   14.5537 H       1  UNL1        0.1473
     16 C          63.8166   90.1564   14.1614 C.3     1  UNL1        0.1869
     17 C          63.6282   90.5387   12.7233 C.ar    1  UNL1        0.2334
     18 C          62.7238   89.7271   11.8439 C.ar    1  UNL1        0.0677
     19 C          62.5354   90.1094   10.4056 C.ar    1  UNL1        0.0122
     20 C          63.2512   91.3033    9.8469 C.ar    1  UNL1        0.0772
     21 C          64.1556   92.1149   10.7265 C.ar    1  UNL1        0.3014
     22 N          64.3441   91.7326   12.1646 N.ar    1  UNL1       -0.1592
     23 O          65.2484   92.5442   13.0440 O.co2   1  UNL1       -0.6190
     24 N          63.9582   84.5113   11.6365 N.pl3   1  UNL1       -0.3119
     25 H          64.9073   84.3655   11.4195 H       1  UNL1        0.1522
     26 C          63.0203   85.0308   10.5874 C.ar    1  UNL1        0.0493
     27 C          61.8776   85.9209   10.9774 C.ar    1  UNL1        0.0170
     28 C          60.9397   86.4404    9.9283 C.ar    1  UNL1        0.0318
     29 C          61.1445   86.0697    8.4893 C.ar    1  UNL1        0.1507
     30 F          60.2066   86.5892    7.4402 F       1  UNL1       -0.2033
     31 C          62.2872   85.1796    8.0994 C.ar    1  UNL1        0.0863
     32 CL         62.4920   84.8090    6.6603 Cl      1  UNL1       -0.0799
     33 C          63.2251   84.6602    9.1484 C.ar    1  UNL1        0.0283
@<TRIPOS>UNITY_ATOM_ATTR
22 1
charge 1
23 1
charge -1
@<TRIPOS>BOND
     1    12    13    3
     2    13     1    1
     3     1     2   ar
     4     2     3   ar
     5     3     4   ar
     6     4     5   ar
     7     5     6    1
     8     5     7   ar
     9     7     8   ar
    10     8    14    1
    11    14    16    1
    12    16    17    1
    13    17    18   ar
    14    18    19   ar
    15    19    20   ar
    16    20    21   ar
    17    21    22   ar
    18    22    23    1
    19     8     9   ar
    20     9    10   ar
    21    10    11   ar
    22    11    24    1
    23    24    26    1
    24    26    27   ar
    25    27    28   ar
    26    28    29   ar
    27    29    30    1
    28    29    31   ar
    29    31    32    1
    30    31    33   ar
    31    11     1   ar
    32    33    26   ar
    33    10     4   ar
    34    22    17   ar
    35    14    15    1
    36    24    25    1
@<TRIPOS>MOLECULE
*****
 33 36 0 0 0
SMALL
GASTEIGER

@<TRIPOS>ATOM
      1 C          60.3303   88.8985    9.9663 C.ar    1  UNL1        0.1009
      2 C          59.9715   88.5445    8.5535 C.ar    1  UNL1        0.1103
      3 N          60.5461   87.3122    7.9200 N.ar    1  UNL1       -0.2422
      4 C          61.4795   86.4339    8.6993 C.ar    1  UNL1        0.0931
      5 C          62.0541   85.2016    8.0658 C.ar    1  UNL1        0.0765
      6 CL         61.6953   84.8476    6.6531 Cl      1  UNL1       -0.0806
      7 C          62.9875   84.3233    8.8451 C.ar    1  UNL1        0.0272
      8 C          63.3464   84.6772   10.2579 C.ar    1  UNL1        0.0460
      9 C          62.7718   85.9095   10.8914 C.ar    1  UNL1        0.0171
     10 C          61.8383   86.7879   10.1121 C.ar    1  UNL1        0.0338
     11 C          61.2637   88.0201   10.7455 C.ar    1  UNL1        0.0611
     12 N          59.1811   91.3630   11.2333 N.1     1  UNL1       -0.1907
     13 C          59.7557   90.1307   10.5998 C.1     1  UNL1        0.1032
     14 N          64.2798   83.7989   11.0372 N.pl3   1  UNL1       -0.3240
     15 H          65.2054   83.6680   10.7284 H       1  UNL1        0.1473
     16 C          63.8029   83.1201   12.2869 C.3     1  UNL1        0.1869
     17 C          63.6945   83.8949   13.5667 C.ar    1  UNL1        0.2334
     18 C          64.5932   85.0710   13.8097 C.ar    1  UNL1        0.0677
     19 C          64.4849   85.8460   15.0895 C.ar    1  UNL1        0.0122
     20 C          63.4778   85.4447   16.1262 C.ar    1  UNL1        0.0772
     21 C          62.5791   84.2685   15.8832 C.ar    1  UNL1        0.3014
     22 N          62.6875   83.4937   14.6034 N.ar    1  UNL1       -0.1592
     23 O          61.7888   82.3175   14.3604 O.co2   1  UNL1       -0.6190
     24 N          61.6226   88.3741   12.1584 N.pl3   1  UNL1       -0.3119
     25 H          61.1287   87.9696   12.9078 H       1  UNL1        0.1522
     26 C          62.7340   89.3443   12.4293 C.ar    1  UNL1        0.0493
     27 C          63.4901   89.2765   13.7231 C.ar    1  UNL1        0.0170
     28 C          64.6015   90.2467   13.9940 C.ar    1  UNL1        0.0318
     29 C          64.9568   91.2848   12.9711 C.ar    1  UNL1        0.1507
     30 F          66.0682   92.2551   13.2420 F       1  UNL1       -0.2033
     31 C          64.2007   91.3526   11.6774 C.ar    1  UNL1        0.0863
     32 CL         64.5561   92.3907   10.6545 Cl      1  UNL1       -0.0799
     33 C          63.0893   90.3824   11.4065 C.ar    1  UNL1        0.0283
@<TRIPOS>UNITY_ATOM_ATTR
22 1
charge 1
23 1
charge -1
@<TRIPOS>BOND
     1    12    13    3
     2    13     1    1
     3     1     2   ar
     4     2     3   ar
     5     3     4   ar
     6     4     5   ar
     7     5     6    1
     8     5     7   ar
     9     7     8   ar
    10     8    14    1
    11    14    16    1
    12    16    17    1
    13    17    18   ar
    14    18    19   ar
    15    19    20   ar
    16    20    21   ar
    17    21    22   ar
    18    22    23    1
    19     8     9   ar
    20     9    10   ar
    21    10    11   ar
    22    11    24    1
    23    24    26    1
    24    26    27   ar
    25    27    28   ar
    26    28    29   ar
    27    29    30    1
    28    29    31   ar
    29    31    32    1
    30    31    33   ar
    31    11     1   ar
    32    33    26   ar
    33    10     4   ar
    34    22    17   ar
    35    14    15    1
    36    24    25    1
@<TRIPOS>MOLECULE
*****
 33 36 0 0 0
SMALL
GASTEIGER

@<TRIPOS>ATOM
      1 C          63.9445   91.1235   12.5458 C.ar    1  UNL1        0.1009
      2 C          63.0727   91.7799   11.5167 C.ar    1  UNL1        0.1103
      3 N          62.1700   90.9461   10.6565 N.ar    1  UNL1       -0.2422
      4 C          62.1390   89.4560   10.8254 C.ar    1  UNL1        0.0931
      5 C          61.2363   88.6223    9.9652 C.ar    1  UNL1        0.0765
      6 CL         60.3645   89.2787    8.9361 Cl      1  UNL1       -0.0806
      7 C          61.2053   87.1322   10.1341 C.ar    1  UNL1        0.0272
      8 C          62.0771   86.4758   11.1633 C.ar    1  UNL1        0.0460
      9 C          62.9799   87.3095   12.0235 C.ar    1  UNL1        0.0171
     10 C          63.0108   88.7997   11.8545 C.ar    1  UNL1        0.0338
     11 C          63.9135   89.6334   12.7148 C.ar    1  UNL1        0.0611
     12 N          65.7499   92.7910   14.2663 N.1     1  UNL1       -0.1907
     13 C          64.8472   91.9573   13.4061 C.1     1  UNL1        0.1032
     14 N          62.0462   84.9856   11.3322 N.pl3   1  UNL1       -0.3240
     15 H          61.5437   84.4283   10.6949 H       1  UNL1        0.1473
     16 C          62.7809   84.3446   12.4721 C.3     1  UNL1        0.1869
     17 C          62.6105   82.8795   12.7450 C.ar    1  UNL1        0.2334
     18 C          61.9906   82.4236   14.0324 C.ar    1  UNL1        0.0677
     19 C          61.8202   80.9584   14.3053 C.ar    1  UNL1        0.0122
     20 C          62.2698   79.9493   13.2907 C.ar    1  UNL1        0.0772
     21 C          62.8898   80.4053   12.0031 C.ar    1  UNL1        0.3014
     22 N          63.0602   81.8704   11.7303 N.ar    1  UNL1       -0.1592
     23 O          63.6802   82.3264   10.4428 O.co2   1  UNL1       -0.6190
     24 N          64.7853   88.9770   13.7439 N.pl3   1  UNL1       -0.3119
     25 H          65.7647   89.0006   13.6469 H       1  UNL1        0.1522
     26 C          64.1648   88.2845   14.9210 C.ar    1  UNL1        0.0493
     27 C          63.5111   89.0888   16.0054 C.ar    1  UNL1        0.0170
     28 C          62.8906   88.3964   17.1824 C.ar    1  UNL1        0.0318
     29 C          62.9237   86.8995   17.2751 C.ar    1  UNL1        0.1507
     30 F          62.3032   86.2071   18.4521 F       1  UNL1       -0.2033
     31 C          63.5774   86.0953   16.1907 C.ar    1  UNL1        0.0863
     32 CL         63.6105   84.5985   16.2834 Cl      1  UNL1       -0.0799
     33 C          64.1979   86.7878   15.0137 C.ar    1  UNL1        0.0283
@<TRIPOS>UNITY_ATOM_ATTR
22 1
charge 1
23 1
charge -1
@<TRIPOS>BOND
     1    12    13    3
     2    13     1    1
     3     1     2   ar
     4     2     3   ar
     5     3     4   ar
     6     4     5   ar
     7     5     6    1
     8     5     7   ar
     9     7     8   ar
    10     8    14    1
    11    14    16    1
    12    16    17    1
    13    17    18   ar
    14    18    19   ar
    15    19    20   ar
    16    20    21   ar
    17    21    22   ar
    18    22    23    1
    19     8     9   ar
    20     9    10   ar
    21    10    11   ar
    22    11    24    1
    23    24    26    1
    24    26    27   ar
    25    27    28   ar
    26    28    29   ar
    27    29    30    1
    28    29    31   ar
    29    31    32    1
    30    31    33   ar
    31    11     1   ar
    32    33    26   ar
    33    10     4   ar
    34    22    17   ar
    35    14    15    1
    36    24    25    1
@<TRIPOS>MOLECULE
*****
 33 36 0 0 0
SMALL
GASTEIGER

@<TRIPOS>ATOM
      1 C          62.9231   82.7931   13.5623 C.ar    1  UNL1        0.1009
      2 C          62.4567   82.6280   14.9783 C.ar    1  UNL1        0.1103
      3 N          62.5257   83.7850   15.9304 N.ar    1  UNL1       -0.2422
      4 C          63.0611   85.1072   15.4665 C.ar    1  UNL1        0.0931
      5 C          63.1301   86.2642   16.4186 C.ar    1  UNL1        0.0765
      6 CL         62.6636   86.0991   17.8346 Cl      1  UNL1       -0.0806
      7 C          63.6655   87.5863   15.9547 C.ar    1  UNL1        0.0272
      8 C          64.1320   87.7515   14.5386 C.ar    1  UNL1        0.0460
      9 C          64.0630   86.5944   13.5865 C.ar    1  UNL1        0.0171
     10 C          63.5275   85.2723   14.0505 C.ar    1  UNL1        0.0338
     11 C          63.4585   84.1152   13.0984 C.ar    1  UNL1        0.0611
     12 N          62.7851   80.4790   11.6580 N.1     1  UNL1       -0.1907
     13 C          62.8541   81.6361   12.6102 C.1     1  UNL1        0.1032
     14 N          64.6674   89.0736   14.0747 N.pl3   1  UNL1       -0.3240
     15 H          65.1424   89.1380   13.2148 H       1  UNL1        0.1473
     16 C          64.4791   90.2977   14.9210 C.3     1  UNL1        0.1869
     17 C          65.3221   91.5144   14.6781 C.ar    1  UNL1        0.2334
     18 C          66.1446   92.0914   15.7919 C.ar    1  UNL1        0.0677
     19 C          66.9877   93.3081   15.5490 C.ar    1  UNL1        0.0122
     20 C          67.0082   93.9477   14.1924 C.ar    1  UNL1        0.0772
     21 C          66.1857   93.3706   13.0786 C.ar    1  UNL1        0.3014
     22 N          65.3427   92.1540   13.3215 N.ar    1  UNL1       -0.1592
     23 O          64.5202   91.5769   12.2077 O.co2   1  UNL1       -0.6190
     24 N          63.9250   84.2804   11.6823 N.pl3   1  UNL1       -0.3119
     25 H          64.8343   84.0017   11.4279 H       1  UNL1        0.1522
     26 C          63.0060   84.8701   10.6539 C.ar    1  UNL1        0.0493
     27 C          61.8650   85.7450   11.0813 C.ar    1  UNL1        0.0170
     28 C          60.9460   86.3348   10.0529 C.ar    1  UNL1        0.0318
     29 C          61.1680   86.0495    8.5971 C.ar    1  UNL1        0.1507
     30 F          60.2489   86.6393    7.5686 F       1  UNL1       -0.2033
     31 C          62.3089   85.1746    8.1697 C.ar    1  UNL1        0.0863
     32 CL         62.5309   84.8894    6.7138 Cl      1  UNL1       -0.0799
     33 C          63.2279   84.5849    9.1981 C.ar    1  UNL1        0.0283
@<TRIPOS>UNITY_ATOM_ATTR
22 1
charge 1
23 1
charge -1
@<TRIPOS>BOND
     1    12    13    3
     2    13     1    1
     3     1     2   ar
     4     2     3   ar
     5     3     4   ar
     6     4     5   ar
     7     5     6    1
     8     5     7   ar
     9     7     8   ar
    10     8    14    1
    11    14    16    1
    12    16    17    1
    13    17    18   ar
    14    18    19   ar
    15    19    20   ar
    16    20    21   ar
    17    21    22   ar
    18    22    23    1
    19     8     9   ar
    20     9    10   ar
    21    10    11   ar
    22    11    24    1
    23    24    26    1
    24    26    27   ar
    25    27    28   ar
    26    28    29   ar
    27    29    30    1
    28    29    31   ar
    29    31    32    1
    30    31    33   ar
    31    11     1   ar
    32    33    26   ar
    33    10     4   ar
    34    22    17   ar
    35    14    15    1
    36    24    25    1
@<TRIPOS>MOLECULE
*****
 33 36 0 0 0
SMALL
GASTEIGER

@<TRIPOS>ATOM
      1 C          62.5295   85.0209   11.5672 C.ar    1  UNL1        0.1009
      2 C          61.5529   85.2181   10.4459 C.ar    1  UNL1        0.1103
      3 N          61.1804   86.6044   10.0109 N.ar    1  UNL1       -0.2422
      4 C          61.7844   87.7936   10.6972 C.ar    1  UNL1        0.0931
      5 C          61.4118   89.1799   10.2621 C.ar    1  UNL1        0.0765
      6 CL         60.4352   89.3771    9.1409 Cl      1  UNL1       -0.0806
      7 C          62.0158   90.3691   10.9484 C.ar    1  UNL1        0.0272
      8 C          62.9925   90.1720   12.0697 C.ar    1  UNL1        0.0460
      9 C          63.3651   88.7856   12.5048 C.ar    1  UNL1        0.0171
     10 C          62.7610   87.5964   11.8184 C.ar    1  UNL1        0.0338
     11 C          63.1336   86.2101   12.2535 C.ar    1  UNL1        0.0611
     12 N          63.2747   82.2482   12.4373 N.1     1  UNL1       -0.1907
     13 C          62.9021   83.6346   12.0022 C.1     1  UNL1        0.1032
     14 N          63.5965   91.3611   12.7560 N.pl3   1  UNL1       -0.3240
     15 H          63.6885   92.2140   12.2729 H       1  UNL1        0.1473
     16 C          64.0604   91.2508   14.1782 C.3     1  UNL1        0.1869
     17 C          65.4358   91.7146   14.5566 C.ar    1  UNL1        0.2334
     18 C          66.5744   91.5487   13.5944 C.ar    1  UNL1        0.0677
     19 C          67.9498   92.0125   13.9727 C.ar    1  UNL1        0.0122
     20 C          68.1866   92.6422   15.3134 C.ar    1  UNL1        0.0772
     21 C          67.0479   92.8080   16.2757 C.ar    1  UNL1        0.3014
     22 N          65.6725   92.3443   15.8973 N.ar    1  UNL1       -0.1592
     23 O          64.5339   92.5102   16.8596 O.co2   1  UNL1       -0.6190
     24 N          64.1102   86.0129   13.3748 N.pl3   1  UNL1       -0.3119
     25 H          65.0262   85.7079   13.1819 H       1  UNL1        0.1522
     26 C          63.6913   86.2806   14.7900 C.ar    1  UNL1        0.0493
     27 C          63.2899   85.1427   15.6813 C.ar    1  UNL1        0.0170
     28 C          62.8709   85.4103   17.0965 C.ar    1  UNL1        0.0318
     29 C          62.8533   86.8158   17.6205 C.ar    1  UNL1        0.1507
     30 F          62.4344   87.0834   19.0357 F       1  UNL1       -0.2033
     31 C          63.2548   87.9535   16.7292 C.ar    1  UNL1        0.0863
     32 CL         63.2372   89.3590   17.2532 Cl      1  UNL1       -0.0799
     33 C          63.6737   87.6859   15.3140 C.ar    1  UNL1        0.0283
@<TRIPOS>UNITY_ATOM_ATTR
22 1
charge 1
23 1
charge -1
@<TRIPOS>BOND
     1    12    13    3
     2    13     1    1
     3     1     2   ar
     4     2     3   ar
     5     3     4   ar
     6     4     5   ar
     7     5     6    1
     8     5     7   ar
     9     7     8   ar
    10     8    14    1
    11    14    16    1
    12    16    17    1
    13    17    18   ar
    14    18    19   ar
    15    19    20   ar
    16    20    21   ar
    17    21    22   ar
    18    22    23    1
    19     8     9   ar
    20     9    10   ar
    21    10    11   ar
    22    11    24    1
    23    24    26    1
    24    26    27   ar
    25    27    28   ar
    26    28    29   ar
    27    29    30    1
    28    29    31   ar
    29    31    32    1
    30    31    33   ar
    31    11     1   ar
    32    33    26   ar
    33    10     4   ar
    34    22    17   ar
    35    14    15    1
    36    24    25    1
@<TRIPOS>MOLECULE
*****
 33 36 0 0 0
SMALL
GASTEIGER

@<TRIPOS>ATOM
      1 C          65.3790   92.0306   14.2727 C.ar    1  UNL1        0.1009
      2 C          65.7467   92.7013   12.9824 C.ar    1  UNL1        0.1103
      3 N          64.9881   92.3820   11.7283 N.ar    1  UNL1       -0.2422
      4 C          63.8618   91.3921   11.7646 C.ar    1  UNL1        0.0931
      5 C          63.1032   91.0728   10.5106 C.ar    1  UNL1        0.0765
      6 CL         63.4709   91.7435    9.2203 Cl      1  UNL1       -0.0806
      7 C          61.9769   90.0829   10.5468 C.ar    1  UNL1        0.0272
      8 C          61.6091   89.4121   11.8372 C.ar    1  UNL1        0.0460
      9 C          62.3677   89.7314   13.0912 C.ar    1  UNL1        0.0171
     10 C          63.4941   90.7214   13.0549 C.ar    1  UNL1        0.0338
     11 C          64.2527   91.0406   14.3089 C.ar    1  UNL1        0.0611
     12 N          66.8963   92.6691   16.7807 N.1     1  UNL1       -0.1907
     13 C          66.1376   92.3498   15.5267 C.1     1  UNL1        0.1032
     14 N          60.4828   88.4222   11.8734 N.pl3   1  UNL1       -0.3240
     15 H          59.9651   88.2956   12.7012 H       1  UNL1        0.1473
     16 C          60.1452   87.6250   10.6484 C.3     1  UNL1        0.1869
     17 C          61.1407   86.6529   10.0883 C.ar    1  UNL1        0.2334
     18 C          61.3143   86.5289    8.6035 C.ar    1  UNL1        0.0677
     19 C          62.3099   85.5568    8.0433 C.ar    1  UNL1        0.0122
     20 C          63.1319   84.7086    8.9679 C.ar    1  UNL1        0.0772
     21 C          62.9583   84.8326   10.4527 C.ar    1  UNL1        0.3014
     22 N          61.9627   85.8047   11.0129 N.ar    1  UNL1       -0.1592
     23 O          61.7892   85.9286   12.4976 O.co2   1  UNL1       -0.6190
     24 N          63.8850   90.3699   15.5993 N.pl3   1  UNL1       -0.3119
     25 H          63.6650   90.9123   16.3908 H       1  UNL1        0.1522
     26 C          63.8523   88.8726   15.6835 C.ar    1  UNL1        0.0493
     27 C          64.5469   88.0474   14.6410 C.ar    1  UNL1        0.0170
     28 C          64.5142   86.5502   14.7252 C.ar    1  UNL1        0.0318
     29 C          63.7870   85.8780   15.8519 C.ar    1  UNL1        0.1507
     30 F          63.7543   84.3807   15.9361 F       1  UNL1       -0.2033
     31 C          63.0924   86.7032   16.8943 C.ar    1  UNL1        0.0863
     32 CL         62.3652   86.0310   18.0210 Cl      1  UNL1       -0.0799
     33 C          63.1251   88.2004   16.8101 C.ar    1  UNL1        0.0283
@<TRIPOS>UNITY_ATOM_ATTR
22 1
charge 1
23 1
charge -1
@<TRIPOS>BOND
     1    12    13    3
     2    13     1    1
     3     1     2   ar
     4     2     3   ar
     5     3     4   ar
     6     4     5   ar
     7     5     6    1
     8     5     7   ar
     9     7     8   ar
    10     8    14    1
    11    14    16    1
    12    16    17    1
    13    17    18   ar
    14    18    19   ar
    15    19    20   ar
    16    20    21   ar
    17    21    22   ar
    18    22    23    1
    19     8     9   ar
    20     9    10   ar
    21    10    11   ar
    22    11    24    1
    23    24    26    1
    24    26    27   ar
    25    27    28   ar
    26    28    29   ar
    27    29    30    1
    28    29    31   ar
    29    31    32    1
    30    31    33   ar
    31    11     1   ar
    32    33    26   ar
    33    10     4   ar
    34    22    17   ar
    35    14    15    1
    36    24    25    1
@<TRIPOS>MOLECULE
*****
 33 36 0 0 0
SMALL
GASTEIGER

@<TRIPOS>ATOM
      1 C          63.6426   82.3936   12.2900 C.ar    1  UNL1        0.1009
      2 C          64.1600   82.2871   10.8861 C.ar    1  UNL1        0.1103
      3 N          63.8547   83.3665    9.8903 N.ar    1  UNL1       -0.2422
      4 C          63.0319   84.5524   10.2983 C.ar    1  UNL1        0.0931
      5 C          62.7265   85.6318    9.3025 C.ar    1  UNL1        0.0765
      6 CL         63.2440   85.5252    7.8986 Cl      1  UNL1       -0.0806
      7 C          61.9037   86.8177    9.7105 C.ar    1  UNL1        0.0272
      8 C          61.3862   86.9243   11.1144 C.ar    1  UNL1        0.0460
      9 C          61.6915   85.8449   12.1102 C.ar    1  UNL1        0.0171
     10 C          62.5144   84.6589   11.7021 C.ar    1  UNL1        0.0338
     11 C          62.8198   83.5795   12.6980 C.ar    1  UNL1        0.0611
     12 N          64.2533   80.2348   14.2816 N.1     1  UNL1       -0.1907
     13 C          63.9479   81.3142   13.2858 C.1     1  UNL1        0.1032
     14 N          60.5634   88.1102   11.5224 N.pl3   1  UNL1       -0.3240
     15 H          59.8635   88.0114   12.2077 H       1  UNL1        0.1473
     16 C          60.8069   89.4467   10.8862 C.3     1  UNL1        0.1869
     17 C          62.0531   90.2158   11.2105 C.ar    1  UNL1        0.2334
     18 C          62.8211   90.8955   10.1160 C.ar    1  UNL1        0.0677
     19 C          64.0674   91.6647   10.4402 C.ar    1  UNL1        0.0122
     20 C          64.5457   91.7541   11.8591 C.ar    1  UNL1        0.0772
     21 C          63.7777   91.0743   12.9537 C.ar    1  UNL1        0.3014
     22 N          62.5314   90.3052   12.6294 N.ar    1  UNL1       -0.1592
     23 O          61.7634   89.6254   13.7240 O.co2   1  UNL1       -0.6190
     24 N          62.3022   83.6861   14.1019 N.pl3   1  UNL1       -0.3119
     25 H          61.7505   82.9634   14.4793 H       1  UNL1        0.1522
     26 C          62.6254   84.8939   14.9306 C.ar    1  UNL1        0.0493
     27 C          62.0234   85.0497   16.2958 C.ar    1  UNL1        0.0170
     28 C          62.3466   86.2574   17.1245 C.ar    1  UNL1        0.0318
     29 C          63.2717   87.3094   16.5882 C.ar    1  UNL1        0.1507
     30 F          63.5948   88.5172   17.4170 F       1  UNL1       -0.2033
     31 C          63.8736   87.1536   15.2231 C.ar    1  UNL1        0.0863
     32 CL         64.7987   88.2056   14.6868 Cl      1  UNL1       -0.0799
     33 C          63.5504   85.9458   14.3944 C.ar    1  UNL1        0.0283
@<TRIPOS>UNITY_ATOM_ATTR
22 1
charge 1
23 1
charge -1
@<TRIPOS>BOND
     1    12    13    3
     2    13     1    1
     3     1     2   ar
     4     2     3   ar
     5     3     4   ar
     6     4     5   ar
     7     5     6    1
     8     5     7   ar
     9     7     8   ar
    10     8    14    1
    11    14    16    1
    12    16    17    1
    13    17    18   ar
    14    18    19   ar
    15    19    20   ar
    16    20    21   ar
    17    21    22   ar
    18    22    23    1
    19     8     9   ar
    20     9    10   ar
    21    10    11   ar
    22    11    24    1
    23    24    26    1
    24    26    27   ar
    25    27    28   ar
    26    28    29   ar
    27    29    30    1
    28    29    31   ar
    29    31    32    1
    30    31    33   ar
    31    11     1   ar
    32    33    26   ar
    33    10     4   ar
    34    22    17   ar
    35    14    15    1
    36    24    25    1
