@<TRIPOS>MOLECULE
*****
 33 36 0 0 0
SMALL
GASTEIGER

@<TRIPOS>ATOM
      1 C          63.8266   89.0290   13.5838 C.2     1  UNL1        0.2335
      2 O          64.5736   89.3902   14.8334 O.2     1  UNL1       -0.2742
      3 N          63.6760   87.5895   13.1897 N.am    1  UNL1       -0.2755
      4 C          62.9290   87.2283   11.9401 C.3     1  UNL1        0.1149
      5 C          62.7783   85.7889   11.5460 C.3     1  UNL1        0.1137
      6 N          63.3746   84.7107   12.4015 N.pl3   1  UNL1       -0.2897
      7 C          64.1216   85.0719   13.6512 C.3     1  UNL1        0.1137
      8 C          64.2723   86.5113   14.0453 C.3     1  UNL1        0.1149
      9 C          63.2239   83.2712   12.0074 C.ar    1  UNL1        0.1318
     10 C          63.6409   82.8207   10.6388 C.ar    1  UNL1        0.0343
     11 C          63.4903   81.3813   10.2447 C.ar    1  UNL1        0.0083
     12 C          62.9226   80.3923   11.2192 C.ar    1  UNL1        0.0906
     13 C          62.5056   80.8428   12.5879 C.ar    1  UNL1        0.1041
     14 N          62.6562   82.2823   12.9820 N.ar    1  UNL1       -0.2292
     15 C          62.7719   78.9529   10.8252 C.3     1  UNL1        0.4200
     16 F          62.6212   77.5135   10.4311 F       1  UNL1       -0.1658
     17 F          63.0764   79.3110    9.4007 F       1  UNL1       -0.1658
     18 F          62.4674   78.5948   12.2496 F       1  UNL1       -0.1658
     19 C          63.2304   90.1072   12.7283 C.3     1  UNL1        0.1226
     20 C          65.8083   93.4817   11.2393 C.ar    1  UNL1        0.0684
     21 C          65.8376   93.0990   12.6893 C.ar    1  UNL1        0.0100
     22 C          64.9783   91.9741   13.1856 C.ar    1  UNL1       -0.0028
     23 C          64.0897   91.2320   12.2320 C.ar    1  UNL1       -0.0097
     24 C          64.0604   91.6147   10.7819 C.ar    1  UNL1       -0.0028
     25 C          64.9197   92.7395   10.2856 C.ar    1  UNL1        0.0100
     26 N          67.5269   95.7313   10.2466 N.1     1  UNL1       -0.1908
     27 C          66.6676   94.6065   10.7430 C.1     1  UNL1        0.1004
     28 C          61.7748   90.0605   12.3691 C.ar    1  UNL1        0.0094
     29 C          61.3240   90.4978   11.0069 C.ar    1  UNL1       -0.0004
     30 C          59.8684   90.4512   10.6477 C.ar    1  UNL1        0.0204
     31 C          58.8635   89.9672   11.6507 C.ar    1  UNL1        0.0989
     32 N          59.3142   89.5300   13.0129 N.ar    1  UNL1       -0.2426
     33 C          60.7699   89.5766   13.3722 C.ar    1  UNL1        0.0954
@<TRIPOS>BOND
     1    26    27    3
     2    27    20    1
     3    20    21   ar
     4    21    22   ar
     5    22    23   ar
     6    23    19    1
     7    19     1    1
     8     1     2    2
     9     1     3   am
    10     3     4    1
    11     4     5    1
    12     5     6    1
    13     6     9    1
    14     9    10   ar
    15    10    11   ar
    16    11    12   ar
    17    12    15    1
    18    15    16    1
    19    15    17    1
    20    15    18    1
    21    12    13   ar
    22    13    14   ar
    23     6     7    1
    24     7     8    1
    25    19    28    1
    26    28    29   ar
    27    29    30   ar
    28    30    31   ar
    29    31    32   ar
    30    32    33   ar
    31    23    24   ar
    32    24    25   ar
    33    25    20   ar
    34     8     3    1
    35    33    28   ar
    36    14     9   ar
@<TRIPOS>MOLECULE
*****
 33 36 0 0 0
SMALL
GASTEIGER

@<TRIPOS>ATOM
      1 C          63.6750   88.6160   15.3169 C.2     1  UNL1        0.2335
      2 O          63.5793   88.7548   16.8075 O.2     1  UNL1       -0.2742
      3 N          63.5460   87.2642   14.6798 N.am    1  UNL1       -0.2755
      4 C          63.6417   87.1254   13.1893 C.3     1  UNL1        0.1149
      5 C          63.5127   85.7736   12.5522 C.3     1  UNL1        0.1137
      6 N          63.2880   84.5606   13.4055 N.pl3   1  UNL1       -0.2897
      7 C          63.1923   84.6994   14.8960 C.3     1  UNL1        0.1137
      8 C          63.3213   86.0512   15.5332 C.3     1  UNL1        0.1149
      9 C          63.1590   83.2088   12.7683 C.ar    1  UNL1        0.1318
     10 C          63.5246   83.0216   11.3257 C.ar    1  UNL1        0.0343
     11 C          63.3956   81.6698   10.6885 C.ar    1  UNL1        0.0083
     12 C          62.9010   80.5051   11.4940 C.ar    1  UNL1        0.0906
     13 C          62.5354   80.6922   12.9368 C.ar    1  UNL1        0.1041
     14 N          62.6644   82.0441   13.5739 N.ar    1  UNL1       -0.2292
     15 C          62.7720   79.1533   10.8569 C.3     1  UNL1        0.4200
     16 F          62.6430   77.8015   10.2198 F       1  UNL1       -0.1658
     17 F          62.5521   78.5380   12.2071 F       1  UNL1       -0.1658
     18 F          62.9919   79.7687    9.5067 F       1  UNL1       -0.1658
     19 C          63.8997   89.8290   14.4636 C.3     1  UNL1        0.1226
     20 C          67.1086   92.7876   15.5589 C.ar    1  UNL1        0.0684
     21 C          67.3235   91.8354   14.4200 C.ar    1  UNL1        0.0100
     22 C          66.2538   90.8492   14.0549 C.ar    1  UNL1       -0.0028
     23 C          64.9693   90.8152   14.8287 C.ar    1  UNL1       -0.0097
     24 C          64.7545   91.7673   15.9677 C.ar    1  UNL1       -0.0028
     25 C          65.8241   92.7535   16.3327 C.ar    1  UNL1        0.0100
     26 N          69.2479   94.7600   16.2891 N.1     1  UNL1       -0.1908
     27 C          68.1782   93.7738   15.9240 C.1     1  UNL1        0.1004
     28 C          63.0547   90.0558   13.2452 C.ar    1  UNL1        0.0094
     29 C          63.6523   90.6938   12.0262 C.ar    1  UNL1       -0.0004
     30 C          62.8073   90.9205   10.8078 C.ar    1  UNL1        0.0204
     31 C          61.3648   90.5093   10.8083 C.ar    1  UNL1        0.0989
     32 N          60.7672   89.8714   12.0272 N.ar    1  UNL1       -0.2426
     33 C          61.6122   89.6446   13.2457 C.ar    1  UNL1        0.0954
@<TRIPOS>BOND
     1    26    27    3
     2    27    20    1
     3    20    21   ar
     4    21    22   ar
     5    22    23   ar
     6    23    19    1
     7    19     1    1
     8     1     2    2
     9     1     3   am
    10     3     4    1
    11     4     5    1
    12     5     6    1
    13     6     9    1
    14     9    10   ar
    15    10    11   ar
    16    11    12   ar
    17    12    15    1
    18    15    16    1
    19    15    17    1
    20    15    18    1
    21    12    13   ar
    22    13    14   ar
    23     6     7    1
    24     7     8    1
    25    19    28    1
    26    28    29   ar
    27    29    30   ar
    28    30    31   ar
    29    31    32   ar
    30    32    33   ar
    31    23    24   ar
    32    24    25   ar
    33    25    20   ar
    34     8     3    1
    35    33    28   ar
    36    14     9   ar
@<TRIPOS>MOLECULE
*****
 33 36 0 0 0
SMALL
GASTEIGER

@<TRIPOS>ATOM
      1 C          64.1031   89.7887   13.4065 C.2     1  UNL1        0.2335
      2 O          64.7867   90.4121   14.5873 O.2     1  UNL1       -0.2742
      3 N          63.8847   88.3053   13.3633 N.am    1  UNL1       -0.2755
      4 C          63.2012   87.6819   12.1826 C.3     1  UNL1        0.1149
      5 C          62.9828   86.1985   12.1394 C.3     1  UNL1        0.1137
      6 N          63.4480   85.3385   13.2769 N.pl3   1  UNL1       -0.2897
      7 C          64.1317   85.9619   14.4577 C.3     1  UNL1        0.1137
      8 C          64.3500   87.4453   14.5009 C.3     1  UNL1        0.1149
      9 C          63.2297   83.8551   13.2337 C.ar    1  UNL1        0.1318
     10 C          63.7367   83.0560   12.0700 C.ar    1  UNL1        0.0343
     11 C          63.5183   81.5726   12.0268 C.ar    1  UNL1        0.0083
     12 C          62.7930   80.8883   13.1473 C.ar    1  UNL1        0.0906
     13 C          62.2860   81.6875   14.3111 C.ar    1  UNL1        0.1041
     14 N          62.5044   83.1708   14.3543 N.ar    1  UNL1       -0.2292
     15 C          62.5747   79.4049   13.1041 C.3     1  UNL1        0.4200
     16 F          62.3564   77.9215   13.0609 F       1  UNL1       -0.1658
     17 F          62.5075   79.3712   14.6022 F       1  UNL1       -0.1658
     18 F          62.6419   79.4387   11.6060 F       1  UNL1       -0.1658
     19 C          63.6378   90.6487   12.2690 C.3     1  UNL1        0.1226
     20 C          66.0267   94.2652   11.0592 C.ar    1  UNL1        0.0684
     21 C          66.1068   93.7496   12.4655 C.ar    1  UNL1        0.0100
     22 C          65.3105   92.5441   12.8687 C.ar    1  UNL1       -0.0028
     23 C          64.4341   91.8542   11.8658 C.ar    1  UNL1       -0.0097
     24 C          64.3541   92.3699   10.4595 C.ar    1  UNL1       -0.0028
     25 C          65.1504   93.5754   10.0562 C.ar    1  UNL1        0.0100
     26 N          67.6194   96.6763   10.2526 N.1     1  UNL1       -0.1908
     27 C          66.8230   95.4708   10.6559 C.1     1  UNL1        0.1004
     28 C          62.3763   90.3032   11.5348 C.ar    1  UNL1        0.0094
     29 C          62.4383   89.8689   10.1004 C.ar    1  UNL1       -0.0004
     30 C          61.1768   89.5234    9.3662 C.ar    1  UNL1        0.0204
     31 C          59.8532   89.6121   10.0663 C.ar    1  UNL1        0.0989
     32 N          59.7911   90.0464   11.5007 N.ar    1  UNL1       -0.2426
     33 C          61.0527   90.3919   12.2350 C.ar    1  UNL1        0.0954
@<TRIPOS>BOND
     1    26    27    3
     2    27    20    1
     3    20    21   ar
     4    21    22   ar
     5    22    23   ar
     6    23    19    1
     7    19     1    1
     8     1     2    2
     9     1     3   am
    10     3     4    1
    11     4     5    1
    12     5     6    1
    13     6     9    1
    14     9    10   ar
    15    10    11   ar
    16    11    12   ar
    17    12    15    1
    18    15    16    1
    19    15    17    1
    20    15    18    1
    21    12    13   ar
    22    13    14   ar
    23     6     7    1
    24     7     8    1
    25    19    28    1
    26    28    29   ar
    27    29    30   ar
    28    30    31   ar
    29    31    32   ar
    30    32    33   ar
    31    23    24   ar
    32    24    25   ar
    33    25    20   ar
    34     8     3    1
    35    33    28   ar
    36    14     9   ar
@<TRIPOS>MOLECULE
*****
 33 36 0 0 0
SMALL
GASTEIGER

@<TRIPOS>ATOM
      1 C          63.9018   88.8253   14.3537 C.2     1  UNL1        0.2335
      2 O          64.1651   89.0801   15.8083 O.2     1  UNL1       -0.2742
      3 N          63.7324   87.4201   13.8572 N.am    1  UNL1       -0.2755
      4 C          63.4692   87.1652   12.4026 C.3     1  UNL1        0.1149
      5 C          63.2998   85.7599   11.9061 C.3     1  UNL1        0.1137
      6 N          63.3936   84.6096   12.8641 N.pl3   1  UNL1       -0.2897
      7 C          63.6568   84.8644   14.3187 C.3     1  UNL1        0.1137
      8 C          63.8263   86.2696   14.8152 C.3     1  UNL1        0.1149
      9 C          63.2242   83.2043   12.3675 C.ar    1  UNL1        0.1318
     10 C          63.5998   82.8567   10.9576 C.ar    1  UNL1        0.0343
     11 C          63.4304   81.4514   10.4610 C.ar    1  UNL1        0.0083
     12 C          62.8854   80.3938   11.3744 C.ar    1  UNL1        0.0906
     13 C          62.5097   80.7414   12.7845 C.ar    1  UNL1        0.1041
     14 N          62.6791   82.1467   13.2810 N.ar    1  UNL1       -0.2292
     15 C          62.7159   78.9885   10.8779 C.3     1  UNL1        0.4200
     16 F          62.5465   77.5833   10.3813 F       1  UNL1       -0.1658
     17 F          62.9158   79.4624    9.4688 F       1  UNL1       -0.1658
     18 F          62.5161   78.5147   12.2870 F       1  UNL1       -0.1658
     19 C          63.8080   89.9757   13.3957 C.3     1  UNL1        0.1226
     20 C          61.0154   89.7493    9.8744 C.ar    1  UNL1        0.0684
     21 C          62.4880   89.9299    9.6534 C.ar    1  UNL1        0.0100
     22 C          63.4188   90.0054   10.8272 C.ar    1  UNL1       -0.0028
     23 C          62.8771   89.9002   12.2219 C.ar    1  UNL1       -0.0097
     24 C          61.4046   89.7196   12.4429 C.ar    1  UNL1       -0.0028
     25 C          60.4737   89.6442   11.2691 C.ar    1  UNL1        0.0100
     26 N          59.1537   89.5984    7.5268 N.1     1  UNL1       -0.1908
     27 C          60.0845   89.6739    8.7006 C.1     1  UNL1        0.1004
     28 C          64.6450   91.2015   13.6116 C.ar    1  UNL1        0.0094
     29 C          65.1058   92.0116   12.4361 C.ar    1  UNL1       -0.0004
     30 C          65.9428   93.2375   12.6520 C.ar    1  UNL1        0.0204
     31 C          66.3192   93.6533   14.0432 C.ar    1  UNL1        0.0989
     32 N          65.8585   92.8433   15.2185 N.ar    1  UNL1       -0.2426
     33 C          65.0214   91.6173   15.0028 C.ar    1  UNL1        0.0954
@<TRIPOS>BOND
     1    26    27    3
     2    27    20    1
     3    20    21   ar
     4    21    22   ar
     5    22    23   ar
     6    23    19    1
     7    19     1    1
     8     1     2    2
     9     1     3   am
    10     3     4    1
    11     4     5    1
    12     5     6    1
    13     6     9    1
    14     9    10   ar
    15    10    11   ar
    16    11    12   ar
    17    12    15    1
    18    15    16    1
    19    15    17    1
    20    15    18    1
    21    12    13   ar
    22    13    14   ar
    23     6     7    1
    24     7     8    1
    25    19    28    1
    26    28    29   ar
    27    29    30   ar
    28    30    31   ar
    29    31    32   ar
    30    32    33   ar
    31    23    24   ar
    32    24    25   ar
    33    25    20   ar
    34     8     3    1
    35    33    28   ar
    36    14     9   ar
@<TRIPOS>MOLECULE
*****
 33 36 0 0 0
SMALL
GASTEIGER

@<TRIPOS>ATOM
      1 C          64.2322   89.9263   13.9145 C.2     1  UNL1        0.2335
      2 O          64.7071   90.5247   15.2054 O.2     1  UNL1       -0.2742
      3 N          63.9890   88.4493   13.8173 N.am    1  UNL1       -0.2755
      4 C          63.5141   87.8508   12.5264 C.3     1  UNL1        0.1149
      5 C          63.2710   86.3738   12.4292 C.3     1  UNL1        0.1137
      6 N          63.5027   85.4954   13.6227 N.pl3   1  UNL1       -0.2897
      7 C          63.9776   86.0939   14.9136 C.3     1  UNL1        0.1137
      8 C          64.2208   87.5708   15.0109 C.3     1  UNL1        0.1149
      9 C          63.2596   84.0184   13.5254 C.ar    1  UNL1        0.1318
     10 C          63.9847   83.2052   12.4945 C.ar    1  UNL1        0.0343
     11 C          63.7416   81.7283   12.3973 C.ar    1  UNL1        0.0083
     12 C          62.7733   81.0645   13.3309 C.ar    1  UNL1        0.0906
     13 C          62.0480   81.8777   14.3619 C.ar    1  UNL1        0.1041
     14 N          62.2912   83.3546   14.4591 N.ar    1  UNL1       -0.2292
     15 C          62.5301   79.5875   13.2336 C.3     1  UNL1        0.4200
     16 F          62.2870   78.1106   13.1364 F       1  UNL1       -0.1658
     17 F          62.4254   79.5064   14.7278 F       1  UNL1       -0.1658
     18 F          62.6349   79.6687   11.7395 F       1  UNL1       -0.1658
     19 C          64.0004   90.8047   12.7210 C.3     1  UNL1        0.1226
     20 C          60.9233   89.6558    9.6451 C.ar    1  UNL1        0.0684
     21 C          60.4948   90.0143   11.0371 C.ar    1  UNL1        0.0100
     22 C          61.5205   90.3973   12.0624 C.ar    1  UNL1       -0.0028
     23 C          62.9747   90.4217   11.6957 C.ar    1  UNL1       -0.0097
     24 C          63.4032   90.0632   10.3037 C.ar    1  UNL1       -0.0028
     25 C          62.3775   89.6803    9.2784 C.ar    1  UNL1        0.0100
     26 N          58.8718   88.8899    7.5945 N.1     1  UNL1       -0.1908
     27 C          59.8976   89.2728    8.6198 C.1     1  UNL1        0.1004
     28 C          64.7944   92.0661   12.5528 C.ar    1  UNL1        0.0094
     29 C          64.9031   92.7094   11.2020 C.ar    1  UNL1       -0.0004
     30 C          65.6971   93.9708   11.0338 C.ar    1  UNL1        0.0204
     31 C          66.3824   94.5890   12.2162 C.ar    1  UNL1        0.0989
     32 N          66.2737   93.9458   13.5669 N.ar    1  UNL1       -0.2426
     33 C          65.4797   92.6843   13.7352 C.ar    1  UNL1        0.0954
@<TRIPOS>BOND
     1    26    27    3
     2    27    20    1
     3    20    21   ar
     4    21    22   ar
     5    22    23   ar
     6    23    19    1
     7    19     1    1
     8     1     2    2
     9     1     3   am
    10     3     4    1
    11     4     5    1
    12     5     6    1
    13     6     9    1
    14     9    10   ar
    15    10    11   ar
    16    11    12   ar
    17    12    15    1
    18    15    16    1
    19    15    17    1
    20    15    18    1
    21    12    13   ar
    22    13    14   ar
    23     6     7    1
    24     7     8    1
    25    19    28    1
    26    28    29   ar
    27    29    30   ar
    28    30    31   ar
    29    31    32   ar
    30    32    33   ar
    31    23    24   ar
    32    24    25   ar
    33    25    20   ar
    34     8     3    1
    35    33    28   ar
    36    14     9   ar
@<TRIPOS>MOLECULE
*****
 33 36 0 0 0
SMALL
GASTEIGER

@<TRIPOS>ATOM
      1 C          62.3380   89.8574   12.0463 C.2     1  UNL1        0.2335
      2 O          61.2262   90.6090   11.3761 O.2     1  UNL1       -0.2742
      3 N          62.4127   88.3641   11.9262 N.am    1  UNL1       -0.2755
      4 C          63.5244   87.6125   12.5963 C.3     1  UNL1        0.1149
      5 C          63.5991   86.1192   12.4763 C.3     1  UNL1        0.1137
      6 N          62.5621   85.3775   11.6862 N.pl3   1  UNL1       -0.2897
      7 C          61.4503   86.1291   11.0160 C.3     1  UNL1        0.1137
      8 C          61.3756   87.6224   11.1360 C.3     1  UNL1        0.1149
      9 C          62.6368   83.8842   11.5661 C.ar    1  UNL1        0.1318
     10 C          63.1924   83.2587   10.3211 C.ar    1  UNL1        0.0343
     11 C          63.2671   81.7653   10.2011 C.ar    1  UNL1        0.0083
     12 C          62.7863   80.8975   11.3261 C.ar    1  UNL1        0.0906
     13 C          62.2307   81.5230   12.5712 C.ar    1  UNL1        0.1041
     14 N          62.1560   83.0163   12.6912 N.ar    1  UNL1       -0.2292
     15 C          62.8610   79.4042   11.2060 C.3     1  UNL1        0.4200
     16 F          62.9357   77.9109   11.0860 F       1  UNL1       -0.1658
     17 F          62.6445   79.2745   12.6846 F       1  UNL1       -0.1658
     18 F          63.0775   79.5339    9.7274 F       1  UNL1       -0.1658
     19 C          63.3750   90.5992   12.8364 C.3     1  UNL1        0.1226
     20 C          66.3772   93.2021   10.7242 C.ar    1  UNL1        0.0684
     21 C          65.0927   92.8339   10.0427 C.ar    1  UNL1        0.0100
     22 C          64.0920   91.9663   10.7467 C.ar    1  UNL1       -0.0028
     23 C          64.3758   91.4668   12.1323 C.ar    1  UNL1       -0.0097
     24 C          65.6603   91.8349   12.8138 C.ar    1  UNL1       -0.0028
     25 C          66.6610   92.7026   12.1098 C.ar    1  UNL1        0.0100
     26 N          68.3787   94.9373    9.3160 N.1     1  UNL1       -0.1908
     27 C          67.3780   94.0697   10.0201 C.1     1  UNL1        0.1004
     28 C          63.4113   90.4733   14.3306 C.ar    1  UNL1        0.0094
     29 C          63.0857   89.1613   14.9809 C.ar    1  UNL1       -0.0004
     30 C          63.1220   89.0354   16.4751 C.ar    1  UNL1        0.0204
     31 C          63.4838   90.2214   17.3192 C.ar    1  UNL1        0.0989
     32 N          63.8094   91.5333   16.6690 N.ar    1  UNL1       -0.2426
     33 C          63.7731   91.6593   15.1747 C.ar    1  UNL1        0.0954
@<TRIPOS>BOND
     1    26    27    3
     2    27    20    1
     3    20    21   ar
     4    21    22   ar
     5    22    23   ar
     6    23    19    1
     7    19     1    1
     8     1     2    2
     9     1     3   am
    10     3     4    1
    11     4     5    1
    12     5     6    1
    13     6     9    1
    14     9    10   ar
    15    10    11   ar
    16    11    12   ar
    17    12    15    1
    18    15    16    1
    19    15    17    1
    20    15    18    1
    21    12    13   ar
    22    13    14   ar
    23     6     7    1
    24     7     8    1
    25    19    28    1
    26    28    29   ar
    27    29    30   ar
    28    30    31   ar
    29    31    32   ar
    30    32    33   ar
    31    23    24   ar
    32    24    25   ar
    33    25    20   ar
    34     8     3    1
    35    33    28   ar
    36    14     9   ar
@<TRIPOS>MOLECULE
*****
 33 36 0 0 0
SMALL
GASTEIGER

@<TRIPOS>ATOM
      1 C          60.5523   88.5958   11.5923 C.2     1  UNL1        0.2335
      2 O          59.2025   88.6744   12.2418 O.2     1  UNL1       -0.2742
      3 N          61.7255   89.2939   12.2140 N.am    1  UNL1       -0.2755
      4 C          63.0753   89.2154   11.5645 C.3     1  UNL1        0.1149
      5 C          64.2484   89.9134   12.1862 C.3     1  UNL1        0.1137
      6 N          64.0718   90.6900   13.4573 N.pl3   1  UNL1       -0.2897
      7 C          62.7219   90.7685   14.1068 C.3     1  UNL1        0.1137
      8 C          61.5488   90.0705   13.4851 C.3     1  UNL1        0.1149
      9 C          65.2449   91.3880   14.0789 C.ar    1  UNL1        0.1318
     10 C          66.5217   91.5415   13.3068 C.ar    1  UNL1        0.0343
     11 C          67.6948   92.2395   13.9285 C.ar    1  UNL1        0.0083
     12 C          67.5912   92.7841   15.3223 C.ar    1  UNL1        0.0906
     13 C          66.3144   92.6306   16.0945 C.ar    1  UNL1        0.1041
     14 N          65.1412   91.9325   15.4728 N.ar    1  UNL1       -0.2292
     15 C          68.7644   93.4821   15.9439 C.3     1  UNL1        0.4200
     16 F          69.9375   94.1801   16.5656 F       1  UNL1       -0.1658
     17 F          69.2707   92.1690   16.4629 F       1  UNL1       -0.1658
     18 F          68.2581   94.7952   15.4250 F       1  UNL1       -0.1658
     19 C          60.7290   87.8193   10.3212 C.3     1  UNL1        0.1226
     20 C          63.1696   84.0386   10.3150 C.ar    1  UNL1        0.0684
     21 C          62.4668   84.4755   11.5660 C.ar    1  UNL1        0.0100
     22 C          61.6532   85.7358   11.5681 C.ar    1  UNL1       -0.0028
     23 C          61.5425   86.5591   10.3191 C.ar    1  UNL1       -0.0097
     24 C          62.2453   86.1221    9.0681 C.ar    1  UNL1       -0.0028
     25 C          63.0589   84.8619    9.0660 C.ar    1  UNL1        0.0100
     26 N          64.7966   81.5181   10.3108 N.1     1  UNL1       -0.1908
     27 C          63.9831   82.7784   10.3129 C.1     1  UNL1        0.1004
     28 C          60.0921   88.3030    9.0522 C.ar    1  UNL1        0.0094
     29 C          60.4430   89.6548    8.5048 C.ar    1  UNL1       -0.0004
     30 C          59.8062   90.1384    7.2358 C.ar    1  UNL1        0.0204
     31 C          58.8184   89.2704    6.5141 C.ar    1  UNL1        0.0989
     32 N          58.4675   87.9186    7.0615 N.ar    1  UNL1       -0.2426
     33 C          59.1044   87.4349    8.3305 C.ar    1  UNL1        0.0954
@<TRIPOS>BOND
     1    26    27    3
     2    27    20    1
     3    20    21   ar
     4    21    22   ar
     5    22    23   ar
     6    23    19    1
     7    19     1    1
     8     1     2    2
     9     1     3   am
    10     3     4    1
    11     4     5    1
    12     5     6    1
    13     6     9    1
    14     9    10   ar
    15    10    11   ar
    16    11    12   ar
    17    12    15    1
    18    15    16    1
    19    15    17    1
    20    15    18    1
    21    12    13   ar
    22    13    14   ar
    23     6     7    1
    24     7     8    1
    25    19    28    1
    26    28    29   ar
    27    29    30   ar
    28    30    31   ar
    29    31    32   ar
    30    32    33   ar
    31    23    24   ar
    32    24    25   ar
    33    25    20   ar
    34     8     3    1
    35    33    28   ar
    36    14     9   ar
@<TRIPOS>MOLECULE
*****
 33 36 0 0 0
SMALL
GASTEIGER

@<TRIPOS>ATOM
      1 C          62.8287   90.0286   11.5492 C.2     1  UNL1        0.2335
      2 O          62.0567   90.6429   10.4192 O.2     1  UNL1       -0.2742
      3 N          62.8020   88.5431   11.7555 N.am    1  UNL1       -0.2755
      4 C          63.5740   87.9289   12.8854 C.3     1  UNL1        0.1149
      5 C          63.5473   86.4434   13.0917 C.3     1  UNL1        0.1137
      6 N          62.7486   85.5721   12.1682 N.pl3   1  UNL1       -0.2897
      7 C          61.9765   86.1864   11.0383 C.3     1  UNL1        0.1137
      8 C          62.0032   87.6719   10.8319 C.3     1  UNL1        0.1149
      9 C          62.7218   84.0866   12.3746 C.ar    1  UNL1        0.1318
     10 C          63.0873   83.1663   11.2480 C.ar    1  UNL1        0.0343
     11 C          63.0606   81.6808   11.4543 C.ar    1  UNL1        0.0083
     12 C          62.6684   81.1156   12.7873 C.ar    1  UNL1        0.0906
     13 C          62.3029   82.0360   13.9139 C.ar    1  UNL1        0.1041
     14 N          62.3296   83.5215   13.7076 N.ar    1  UNL1       -0.2292
     15 C          62.6417   79.6301   12.9936 C.3     1  UNL1        0.4200
     16 F          62.6150   78.1446   13.1999 F       1  UNL1       -0.1658
     17 F          62.6494   79.4236   11.5079 F       1  UNL1       -0.1658
     18 F          62.6340   79.8367   14.4793 F       1  UNL1       -0.1658
     19 C          63.6274   90.8999   12.4727 C.3     1  UNL1        0.1226
     20 C          66.2284   94.1668   10.7958 C.ar    1  UNL1        0.0684
     21 C          65.2786   93.4296    9.8990 C.ar    1  UNL1        0.0100
     22 C          64.4116   92.3406   10.4580 C.ar    1  UNL1       -0.0028
     23 C          64.4944   91.9889   11.9137 C.ar    1  UNL1       -0.0097
     24 C          65.4443   92.7261   12.8105 C.ar    1  UNL1       -0.0028
     25 C          66.3112   93.8150   12.2516 C.ar    1  UNL1        0.0100
     26 N          67.9624   96.3448    9.6778 N.1     1  UNL1       -0.1908
     27 C          67.0954   95.2558   10.2368 C.1     1  UNL1        0.1004
     28 C          63.5592   90.6821   13.9552 C.ar    1  UNL1        0.0094
     29 C          64.5302   91.3795   14.8612 C.ar    1  UNL1       -0.0004
     30 C          64.4619   91.1618   16.3438 C.ar    1  UNL1        0.0204
     31 C          63.4227   90.2467   16.9203 C.ar    1  UNL1        0.0989
     32 N          62.4516   89.5493   16.0144 N.ar    1  UNL1       -0.2426
     33 C          62.5199   89.7670   14.5318 C.ar    1  UNL1        0.0954
@<TRIPOS>BOND
     1    26    27    3
     2    27    20    1
     3    20    21   ar
     4    21    22   ar
     5    22    23   ar
     6    23    19    1
     7    19     1    1
     8     1     2    2
     9     1     3   am
    10     3     4    1
    11     4     5    1
    12     5     6    1
    13     6     9    1
    14     9    10   ar
    15    10    11   ar
    16    11    12   ar
    17    12    15    1
    18    15    16    1
    19    15    17    1
    20    15    18    1
    21    12    13   ar
    22    13    14   ar
    23     6     7    1
    24     7     8    1
    25    19    28    1
    26    28    29   ar
    27    29    30   ar
    28    30    31   ar
    29    31    32   ar
    30    32    33   ar
    31    23    24   ar
    32    24    25   ar
    33    25    20   ar
    34     8     3    1
    35    33    28   ar
    36    14     9   ar
@<TRIPOS>MOLECULE
*****
 33 36 0 0 0
SMALL
GASTEIGER

@<TRIPOS>ATOM
      1 C          60.8169   88.3466   11.6239 C.2     1  UNL1        0.2335
      2 O          59.5282   88.1646   12.3698 O.2     1  UNL1       -0.2742
      3 N          61.9500   89.0987   12.2568 N.am    1  UNL1       -0.2755
      4 C          63.2386   89.2807   11.5110 C.3     1  UNL1        0.1149
      5 C          64.3717   90.0327   12.1438 C.3     1  UNL1        0.1137
      6 N          64.2162   90.6027   13.5225 N.pl3   1  UNL1       -0.2897
      7 C          62.9275   90.4207   14.2684 C.3     1  UNL1        0.1137
      8 C          61.7944   89.6687   13.6356 C.3     1  UNL1        0.1149
      9 C          65.3493   91.3548   14.1554 C.ar    1  UNL1        0.1318
     10 C          66.6309   91.5539   13.4019 C.ar    1  UNL1        0.0343
     11 C          67.7640   92.3059   14.0348 C.ar    1  UNL1        0.0083
     12 C          67.6155   92.8588   15.4212 C.ar    1  UNL1        0.0906
     13 C          66.3339   92.6597   16.1748 C.ar    1  UNL1        0.1041
     14 N          65.2008   91.9077   15.5419 N.ar    1  UNL1       -0.2292
     15 C          68.7486   93.6109   16.0540 C.3     1  UNL1        0.4200
     16 F          69.8817   94.3629   16.6869 F       1  UNL1       -0.1658
     17 F          69.2871   92.3279   16.6145 F       1  UNL1       -0.1658
     18 F          68.2101   94.8938   15.4936 F       1  UNL1       -0.1658
     19 C          60.9724   87.7766   10.2452 C.3     1  UNL1        0.1226
     20 C          59.0547   89.8318    6.7312 C.ar    1  UNL1        0.0684
     21 C          58.7286   88.3989    7.0315 C.ar    1  UNL1        0.0100
     22 C          59.3678   87.7138    8.2029 C.ar    1  UNL1       -0.0028
     23 C          60.3332   88.4617    9.0739 C.ar    1  UNL1       -0.0097
     24 C          60.6593   89.8946    8.7736 C.ar    1  UNL1       -0.0028
     25 C          60.0200   90.5797    7.6022 C.ar    1  UNL1        0.0100
     26 N          57.7761   91.2020    4.3885 N.1     1  UNL1       -0.1908
     27 C          58.4154   90.5169    5.5599 C.1     1  UNL1        0.1004
     28 C          61.7672   86.5215   10.0379 C.ar    1  UNL1        0.0094
     29 C          62.3735   86.2306    8.6970 C.ar    1  UNL1       -0.0004
     30 C          63.1683   84.9755    8.4896 C.ar    1  UNL1        0.0204
     31 C          63.3568   84.0113    9.6231 C.ar    1  UNL1        0.0989
     32 N          62.7506   84.3022   10.9639 N.ar    1  UNL1       -0.2426
     33 C          61.9557   85.5573   11.1713 C.ar    1  UNL1        0.0954
@<TRIPOS>BOND
     1    26    27    3
     2    27    20    1
     3    20    21   ar
     4    21    22   ar
     5    22    23   ar
     6    23    19    1
     7    19     1    1
     8     1     2    2
     9     1     3   am
    10     3     4    1
    11     4     5    1
    12     5     6    1
    13     6     9    1
    14     9    10   ar
    15    10    11   ar
    16    11    12   ar
    17    12    15    1
    18    15    16    1
    19    15    17    1
    20    15    18    1
    21    12    13   ar
    22    13    14   ar
    23     6     7    1
    24     7     8    1
    25    19    28    1
    26    28    29   ar
    27    29    30   ar
    28    30    31   ar
    29    31    32   ar
    30    32    33   ar
    31    23    24   ar
    32    24    25   ar
    33    25    20   ar
    34     8     3    1
    35    33    28   ar
    36    14     9   ar
