@<TRIPOS>MOLECULE
*****
 47 52 0 0 0
SMALL
GASTEIGER

@<TRIPOS>ATOM
      1 N          60.0345   90.4637    5.7654 N.pl3   1  UNL1       -0.3041
      2 C          58.6701   91.0177    5.4800 C.3     1  UNL1        0.1122
      3 C          58.4663   91.9505    4.3232 C.3     1  UNL1        0.1122
      4 N          59.6270   92.3294    3.4518 N.pl3   1  UNL1       -0.3041
      5 C          60.9914   91.7754    3.7372 C.3     1  UNL1        0.1122
      6 C          61.1952   90.8426    4.8940 C.3     1  UNL1        0.1122
      7 C          60.6460   87.6651    9.2358 C.ar    1  UNL1        0.0506
      8 C          59.9530   87.1824    7.9962 C.ar    1  UNL1        0.0159
      9 C          59.7492   88.1153    6.8394 C.ar    1  UNL1        0.0158
     10 C          60.2384   89.5308    6.9223 C.ar    1  UNL1        0.0480
     11 C          60.9314   90.0136    8.1619 C.ar    1  UNL1        0.0158
     12 C          61.1352   89.0807    9.3187 C.ar    1  UNL1        0.0159
     13 C          62.0226   85.7972   10.4045 C.2     1  UNL1        0.2495
     14 O          62.9917   85.7950    9.2595 O.2     1  UNL1       -0.2698
     15 N          60.8498   86.7322   10.3927 N.am    1  UNL1       -0.2804
     16 H          60.2138   86.7337   11.1442 H       1  UNL1        0.1552
     17 C          62.5406   82.4546   12.4802 C.ar    1  UNL1        0.0349
     18 C          62.6341   82.9986   13.8749 C.ar    1  UNL1        0.0028
     19 C          62.5238   84.4755   14.1128 C.ar    1  UNL1        0.0002
     20 C          62.3200   85.4083   12.9561 C.ar    1  UNL1        0.0045
     21 C          62.2265   84.8643   11.5614 C.ar    1  UNL1        0.0538
     22 C          62.3368   83.3874   11.3234 C.ar    1  UNL1        0.0074
     23 C          62.3369   80.0143   13.3482 C.3     1  UNL1        0.0773
     24 C          62.6510   80.9777   12.2423 C.2     1  UNL1        0.1735
     25 O          63.0753   80.4641   10.8984 O.2     1  UNL1       -0.2913
     26 C          59.4231   93.2623    2.2949 C.ar    1  UNL1        0.0481
     27 C          59.9780   94.6548    2.3476 C.ar    1  UNL1        0.0176
     28 C          59.7741   95.5877    1.1908 C.ar    1  UNL1        0.0382
     29 C          59.0154   95.1279   -0.0188 C.ar    1  UNL1        0.1386
     30 C          58.4606   93.7353   -0.0715 C.ar    1  UNL1        0.0382
     31 C          58.6644   92.8025    1.0854 C.ar    1  UNL1        0.0176
     32 O          58.8116   96.0607   -1.1756 O.3     1  UNL1       -0.4754
     33 C          59.2784   95.6689   -2.5462 C.3     1  UNL1        0.2079
     34 C          60.5665   94.9187   -2.7139 C.3     1  UNL1        0.0760
     35 C          60.9645   94.1066   -3.9106 C.3     1  UNL1        0.1461
     36 O          62.3266   93.5349   -3.6506 O.3     1  UNL1       -0.3543
     37 C          62.7706   93.9937   -2.2932 C.3     1  UNL1        0.1137
     38 C          64.0051   93.1997   -2.6019 C.3     1  UNL1        0.0343
     39 C          61.6827   94.8490   -1.7143 C.3     1  UNL1        0.0378
     40 C          63.4726   94.2865   -1.0004 C.ar    1  UNL1        0.0296
     41 C          64.5836   95.2936   -0.9616 C.ar    1  UNL1        0.0025
     42 C          65.2856   95.5864    0.3313 C.ar    1  UNL1        0.0295
     43 C          64.8767   94.8721    1.5852 C.ar    1  UNL1        0.1424
     44 F          65.5788   95.1649    2.8781 F       1  UNL1       -0.2041
     45 C          63.7658   93.8650    1.5464 C.ar    1  UNL1        0.0590
     46 C          63.0637   93.5722    0.2536 C.ar    1  UNL1        0.1405
     47 F          61.9528   92.5651    0.2148 F       1  UNL1       -0.2044
@<TRIPOS>BOND
     1    23    24    1
     2    24    25    2
     3    24    17    1
     4    17    18   ar
     5    18    19   ar
     6    19    20   ar
     7    20    21   ar
     8    21    13    1
     9    13    14    2
    10    13    15   am
    11    15     7    1
    12     7     8   ar
    13     8     9   ar
    14     9    10   ar
    15    10     1    1
    16     1     2    1
    17     2     3    1
    18     3     4    1
    19     4    26    1
    20    26    27   ar
    21    27    28   ar
    22    28    29   ar
    23    29    32    1
    24    32    33    1
    25    34    33    1
    26    34    35    1
    27    35    36    1
    28    36    37    1
    29    37    38    1
    30    37    40    1
    31    40    41   ar
    32    41    42   ar
    33    42    43   ar
    34    43    44    1
    35    43    45   ar
    36    45    46   ar
    37    46    47    1
    38    37    39    1
    39    29    30   ar
    40    30    31   ar
    41     4     5    1
    42     5     6    1
    43    10    11   ar
    44    11    12   ar
    45    21    22   ar
    46    22    17   ar
    47    12     7   ar
    48     6     1    1
    49    31    26   ar
    50    39    34    1
    51    46    40   ar
    52    15    16    1
@<TRIPOS>MOLECULE
*****
 47 52 0 0 0
SMALL
GASTEIGER

@<TRIPOS>ATOM
      1 N          60.0268   90.4402    5.7116 N.pl3   1  UNL1       -0.3041
      2 C          58.6574   90.9792    5.4217 C.3     1  UNL1        0.1122
      3 C          58.4492   91.9185    4.2709 C.3     1  UNL1        0.1122
      4 N          59.6105   92.3187    3.4100 N.pl3   1  UNL1       -0.3041
      5 C          60.9800   91.7797    3.6998 C.3     1  UNL1        0.1122
      6 C          61.1881   90.8405    4.8507 C.3     1  UNL1        0.1122
      7 C          60.6513   87.6223    9.1640 C.ar    1  UNL1        0.0506
      8 C          59.9941   87.1344    7.9071 C.ar    1  UNL1        0.0159
      9 C          59.7859   88.0737    6.7563 C.ar    1  UNL1        0.0158
     10 C          60.2350   89.5009    6.8625 C.ar    1  UNL1        0.0480
     11 C          60.8923   89.9889    8.1194 C.ar    1  UNL1        0.0158
     12 C          61.1004   89.0496    9.2701 C.ar    1  UNL1        0.0159
     13 C          62.0309   85.7460   10.3158 C.2     1  UNL1        0.2495
     14 O          62.9941   85.7483    9.1659 O.2     1  UNL1       -0.2698
     15 N          60.8595   86.6830   10.3149 N.am    1  UNL1       -0.2804
     16 H          60.2274   86.6815   11.0696 H       1  UNL1        0.1552
     17 C          62.7185   84.4106   13.9892 C.ar    1  UNL1        0.0349
     18 C          62.6555   82.9283   13.7684 C.ar    1  UNL1        0.0028
     19 C          62.3843   82.3852   12.3967 C.ar    1  UNL1        0.0002
     20 C          62.1761   83.3245   11.2458 C.ar    1  UNL1        0.0045
     21 C          62.2391   84.8067   11.4667 C.ar    1  UNL1        0.0538
     22 C          62.5103   85.3498   12.8384 C.ar    1  UNL1        0.0074
     23 C          64.3353   85.5310   15.6864 C.3     1  UNL1        0.0773
     24 C          62.9897   84.9536   15.3609 C.2     1  UNL1        0.1735
     25 O          61.9153   84.9194   16.4071 O.2     1  UNL1       -0.2913
     26 C          59.4023   93.2580    2.2591 C.ar    1  UNL1        0.0481
     27 C          58.6374   92.8057    1.0507 C.ar    1  UNL1        0.0176
     28 C          58.4292   93.7450   -0.1002 C.ar    1  UNL1        0.0382
     29 C          58.9860   95.1366   -0.0426 C.ar    1  UNL1        0.1386
     30 C          59.7509   95.5890    1.1659 C.ar    1  UNL1        0.0382
     31 C          59.9591   94.6497    2.3167 C.ar    1  UNL1        0.0176
     32 O          58.7778   96.0759   -1.1933 O.3     1  UNL1       -0.4754
     33 C          59.2352   95.6899   -2.5687 C.3     1  UNL1        0.2079
     34 C          60.5126   94.9240   -2.7469 C.3     1  UNL1        0.0760
     35 C          60.8871   94.1002   -3.9433 C.3     1  UNL1        0.1461
     36 O          62.2457   93.5145   -3.6958 O.3     1  UNL1       -0.3543
     37 C          62.7108   93.9763   -2.3465 C.3     1  UNL1        0.1137
     38 C          63.9325   93.1664   -2.6648 C.3     1  UNL1        0.0343
     39 C          61.6397   94.8474   -1.7601 C.3     1  UNL1        0.0378
     40 C          63.4313   94.2687   -1.0638 C.ar    1  UNL1        0.0296
     41 C          64.5435   95.2749   -1.0409 C.ar    1  UNL1        0.0025
     42 C          65.2640   95.5673    0.2418 C.ar    1  UNL1        0.0295
     43 C          64.8723   94.8535    1.5016 C.ar    1  UNL1        0.1424
     44 F          65.5929   95.1460    2.7843 F       1  UNL1       -0.2041
     45 C          63.7602   93.8474    1.4787 C.ar    1  UNL1        0.0590
     46 C          63.0396   93.5549    0.1959 C.ar    1  UNL1        0.1405
     47 F          61.9275   92.5487    0.1730 F       1  UNL1       -0.2044
@<TRIPOS>BOND
     1    23    24    1
     2    24    25    2
     3    24    17    1
     4    17    18   ar
     5    18    19   ar
     6    19    20   ar
     7    20    21   ar
     8    21    13    1
     9    13    14    2
    10    13    15   am
    11    15     7    1
    12     7     8   ar
    13     8     9   ar
    14     9    10   ar
    15    10     1    1
    16     1     2    1
    17     2     3    1
    18     3     4    1
    19     4    26    1
    20    26    27   ar
    21    27    28   ar
    22    28    29   ar
    23    29    32    1
    24    32    33    1
    25    34    33    1
    26    34    35    1
    27    35    36    1
    28    36    37    1
    29    37    38    1
    30    37    40    1
    31    40    41   ar
    32    41    42   ar
    33    42    43   ar
    34    43    44    1
    35    43    45   ar
    36    45    46   ar
    37    46    47    1
    38    37    39    1
    39    29    30   ar
    40    30    31   ar
    41     4     5    1
    42     5     6    1
    43    10    11   ar
    44    11    12   ar
    45    21    22   ar
    46    22    17   ar
    47    12     7   ar
    48     6     1    1
    49    31    26   ar
    50    39    34    1
    51    46    40   ar
    52    15    16    1
@<TRIPOS>MOLECULE
*****
 47 52 0 0 0
SMALL
GASTEIGER

@<TRIPOS>ATOM
      1 N          60.4118   89.4255    7.2925 N.pl3   1  UNL1       -0.3041
      2 C          60.1866   87.9426    7.3088 C.3     1  UNL1        0.1122
      3 C          60.6870   87.1207    8.4595 C.3     1  UNL1        0.1122
      4 N          61.4126   87.7817    9.5937 N.pl3   1  UNL1       -0.3041
      5 C          61.6378   89.2646    9.5774 C.3     1  UNL1        0.1122
      6 C          61.1374   90.0865    8.4267 C.3     1  UNL1        0.1122
      7 C          58.9107   91.8914    3.8405 C.ar    1  UNL1        0.0506
      8 C          60.3842   91.6844    4.0295 C.ar    1  UNL1        0.0159
      9 C          60.8845   90.8624    5.1801 C.ar    1  UNL1        0.0158
     10 C          59.9114   90.2475    6.1418 C.ar    1  UNL1        0.0480
     11 C          58.4378   90.4545    5.9528 C.ar    1  UNL1        0.0158
     12 C          57.9375   91.2765    4.8022 C.ar    1  UNL1        0.0159
     13 C          59.3476   93.1105    1.5882 C.2     1  UNL1        0.2495
     14 O          60.7853   92.6857    1.6371 O.2     1  UNL1       -0.2698
     15 N          58.4102   92.7134    2.6898 N.am    1  UNL1       -0.2804
     16 H          57.4666   92.9922    2.6577 H       1  UNL1        0.1552
     17 C          57.2474   94.2290   -1.5881 C.ar    1  UNL1        0.0349
     18 C          57.8463   95.5763   -1.8637 C.ar    1  UNL1        0.0028
     19 C          58.9456   96.1017   -0.9888 C.ar    1  UNL1        0.0002
     20 C          59.4460   95.2798    0.1618 C.ar    1  UNL1        0.0045
     21 C          58.8471   93.9325    0.4375 C.ar    1  UNL1        0.0538
     22 C          57.7478   93.4071   -0.4374 C.ar    1  UNL1        0.0074
     23 C          55.9801   94.2338   -3.8560 C.3     1  UNL1        0.0773
     24 C          56.1481   93.7036   -2.4630 C.2     1  UNL1        0.1735
     25 O          55.2169   92.6480   -1.9449 O.2     1  UNL1       -0.2913
     26 C          61.9130   86.9597   10.7444 C.ar    1  UNL1        0.0481
     27 C          62.7848   87.5873   11.7913 C.ar    1  UNL1        0.0176
     28 C          63.2853   86.7653   12.9420 C.ar    1  UNL1        0.0382
     29 C          62.9138   85.3157   13.0457 C.ar    1  UNL1        0.1386
     30 C          62.0419   84.6882   11.9987 C.ar    1  UNL1        0.0382
     31 C          61.5416   85.5101   10.8481 C.ar    1  UNL1        0.0176
     32 O          63.4142   84.4938   14.1963 O.3     1  UNL1       -0.4754
     33 C          64.2449   85.1329   15.2693 C.3     1  UNL1        0.2079
     34 C          63.8635   86.4784   15.8117 C.3     1  UNL1        0.0760
     35 C          63.1333   86.7365   17.0963 C.3     1  UNL1        0.1461
     36 O          62.9638   88.2196   17.2432 O.3     1  UNL1       -0.3543
     37 C          63.5891   88.8782   16.0493 C.3     1  UNL1        0.1137
     38 C          63.1444   90.1474   16.7136 C.3     1  UNL1        0.0343
     39 C          64.1451   87.8020   15.1646 C.3     1  UNL1        0.0378
     40 C          64.1215   89.8021   14.9944 C.ar    1  UNL1        0.0296
     41 C          65.5415   90.2804   15.0634 C.ar    1  UNL1        0.0025
     42 C          66.0738   91.2043   14.0084 C.ar    1  UNL1        0.0295
     43 C          65.1862   91.6499   12.8844 C.ar    1  UNL1        0.1424
     44 F          65.7186   92.5738   11.8294 F       1  UNL1       -0.2041
     45 C          63.7662   91.1716   12.8153 C.ar    1  UNL1        0.0590
     46 C          63.2338   90.2476   13.8703 C.ar    1  UNL1        0.1405
     47 F          61.8139   89.7694   13.8013 F       1  UNL1       -0.2044
@<TRIPOS>BOND
     1    23    24    1
     2    24    25    2
     3    24    17    1
     4    17    18   ar
     5    18    19   ar
     6    19    20   ar
     7    20    21   ar
     8    21    13    1
     9    13    14    2
    10    13    15   am
    11    15     7    1
    12     7     8   ar
    13     8     9   ar
    14     9    10   ar
    15    10     1    1
    16     1     2    1
    17     2     3    1
    18     3     4    1
    19     4    26    1
    20    26    27   ar
    21    27    28   ar
    22    28    29   ar
    23    29    32    1
    24    32    33    1
    25    34    33    1
    26    34    35    1
    27    35    36    1
    28    36    37    1
    29    37    38    1
    30    37    40    1
    31    40    41   ar
    32    41    42   ar
    33    42    43   ar
    34    43    44    1
    35    43    45   ar
    36    45    46   ar
    37    46    47    1
    38    37    39    1
    39    29    30   ar
    40    30    31   ar
    41     4     5    1
    42     5     6    1
    43    10    11   ar
    44    11    12   ar
    45    21    22   ar
    46    22    17   ar
    47    12     7   ar
    48     6     1    1
    49    31    26   ar
    50    39    34    1
    51    46    40   ar
    52    15    16    1
@<TRIPOS>MOLECULE
*****
 47 52 0 0 0
SMALL
GASTEIGER

@<TRIPOS>ATOM
      1 N          60.0785   90.2330    5.9947 N.pl3   1  UNL1       -0.3041
      2 C          58.7077   90.7324    5.6464 C.3     1  UNL1        0.1122
      3 C          58.5211   91.6618    4.4839 C.3     1  UNL1        0.1122
      4 N          59.7053   92.0918    3.6698 N.pl3   1  UNL1       -0.3041
      5 C          61.0761   91.5923    4.0181 C.3     1  UNL1        0.1122
      6 C          61.2627   90.6629    5.1805 C.3     1  UNL1        0.1122
      7 C          60.6386   87.4448    9.4821 C.ar    1  UNL1        0.0506
      8 C          61.1154   88.8641    9.5725 C.ar    1  UNL1        0.0159
      9 C          60.9287   89.7934    8.4101 C.ar    1  UNL1        0.0158
     10 C          60.2652   89.3035    7.1572 C.ar    1  UNL1        0.0480
     11 C          59.7884   87.8842    7.0668 C.ar    1  UNL1        0.0158
     12 C          59.9751   86.9549    8.2292 C.ar    1  UNL1        0.0159
     13 C          61.9894   85.5698   10.6694 C.2     1  UNL1        0.2495
     14 O          62.9669   85.5535    9.5317 O.2     1  UNL1       -0.2698
     15 N          60.8253   86.5153   10.6446 N.am    1  UNL1       -0.2804
     16 H          60.1837   86.5260   11.3913 H       1  UNL1        0.1552
     17 C          62.5435   82.2407   12.7576 C.ar    1  UNL1        0.0349
     18 C          62.5494   82.7814   14.1567 C.ar    1  UNL1        0.0028
     19 C          62.3687   84.2515   14.3934 C.ar    1  UNL1        0.0002
     20 C          62.1820   85.1810   13.2310 C.ar    1  UNL1        0.0045
     21 C          62.1761   84.6403   11.8319 C.ar    1  UNL1        0.0538
     22 C          62.3568   83.1702   11.5952 C.ar    1  UNL1        0.0074
     23 C          62.8092   79.8284   13.6849 C.3     1  UNL1        0.0773
     24 C          62.7243   80.7706   12.5209 C.2     1  UNL1        0.1735
     25 O          62.8201   80.2427   11.1202 O.2     1  UNL1       -0.2913
     26 C          59.5186   93.0212    2.5073 C.ar    1  UNL1        0.0481
     27 C          58.7847   92.5553    1.2849 C.ar    1  UNL1        0.0176
     28 C          58.5981   93.4848    0.1223 C.ar    1  UNL1        0.0382
     29 C          59.1453   94.8801    0.1823 C.ar    1  UNL1        0.1386
     30 C          59.8792   95.3460    1.4048 C.ar    1  UNL1        0.0382
     31 C          60.0658   94.4166    2.5673 C.ar    1  UNL1        0.0176
     32 O          58.9586   95.8096   -0.9801 O.3     1  UNL1       -0.4754
     33 C          58.5320   95.2681   -2.3123 C.3     1  UNL1        0.2079
     34 C          59.5602   94.9540   -3.3584 C.3     1  UNL1        0.0760
     35 C          59.3010   94.2890   -4.6777 C.3     1  UNL1        0.1461
     36 O          60.6086   94.1737   -5.4035 O.3     1  UNL1       -0.3543
     37 C          61.6760   94.7675   -4.5327 C.3     1  UNL1        0.1137
     38 C          62.5869   94.3931   -5.6641 C.3     1  UNL1        0.0343
     39 C          61.0280   95.2497   -3.2688 C.3     1  UNL1        0.0378
     40 C          62.9338   95.2830   -3.8985 C.ar    1  UNL1        0.0296
     41 C          63.7446   96.3384   -4.5905 C.ar    1  UNL1        0.0025
     42 C          65.0023   96.8539   -3.9563 C.ar    1  UNL1        0.0295
     43 C          65.4493   96.3140   -2.6302 C.ar    1  UNL1        0.1424
     44 F          66.7072   96.8296   -1.9960 F       1  UNL1       -0.2041
     45 C          64.6386   95.2587   -1.9382 C.ar    1  UNL1        0.0590
     46 C          63.3808   94.7431   -2.5724 C.ar    1  UNL1        0.1405
     47 F          62.5701   93.6878   -1.8805 F       1  UNL1       -0.2044
@<TRIPOS>BOND
     1    23    24    1
     2    24    25    2
     3    24    17    1
     4    17    18   ar
     5    18    19   ar
     6    19    20   ar
     7    20    21   ar
     8    21    13    1
     9    13    14    2
    10    13    15   am
    11    15     7    1
    12     7     8   ar
    13     8     9   ar
    14     9    10   ar
    15    10     1    1
    16     1     2    1
    17     2     3    1
    18     3     4    1
    19     4    26    1
    20    26    27   ar
    21    27    28   ar
    22    28    29   ar
    23    29    32    1
    24    32    33    1
    25    34    33    1
    26    34    35    1
    27    35    36    1
    28    36    37    1
    29    37    38    1
    30    37    40    1
    31    40    41   ar
    32    41    42   ar
    33    42    43   ar
    34    43    44    1
    35    43    45   ar
    36    45    46   ar
    37    46    47    1
    38    37    39    1
    39    29    30   ar
    40    30    31   ar
    41     4     5    1
    42     5     6    1
    43    10    11   ar
    44    11    12   ar
    45    21    22   ar
    46    22    17   ar
    47    12     7   ar
    48     6     1    1
    49    31    26   ar
    50    39    34    1
    51    46    40   ar
    52    15    16    1
@<TRIPOS>MOLECULE
*****
 47 52 0 0 0
SMALL
GASTEIGER

@<TRIPOS>ATOM
      1 N          60.0971   90.3427    5.9346 N.pl3   1  UNL1       -0.3041
      2 C          61.2825   90.7819    5.1273 C.3     1  UNL1        0.1122
      3 C          61.0969   91.7198    3.9716 C.3     1  UNL1        0.1122
      4 N          59.7258   92.2186    3.6231 N.pl3   1  UNL1       -0.3041
      5 C          58.5404   91.7794    4.4304 C.3     1  UNL1        0.1122
      6 C          58.7260   90.8414    5.5862 C.3     1  UNL1        0.1122
      7 C          60.6537   87.5288    9.4019 C.ar    1  UNL1        0.0506
      8 C          59.9337   87.0673    8.1696 C.ar    1  UNL1        0.0159
      9 C          59.7482   88.0052    7.0139 C.ar    1  UNL1        0.0158
     10 C          60.2826   89.4047    7.0904 C.ar    1  UNL1        0.0480
     11 C          61.0026   89.8662    8.3227 C.ar    1  UNL1        0.0158
     12 C          61.1881   88.9282    9.4785 C.ar    1  UNL1        0.0159
     13 C          61.9949   85.6346   10.5696 C.2     1  UNL1        0.2495
     14 O          62.9651   85.6164    9.4257 O.2     1  UNL1       -0.2698
     15 N          60.8393   86.5908   10.5577 N.am    1  UNL1       -0.2804
     16 H          60.2025   86.6027   11.3085 H       1  UNL1        0.1552
     17 C          62.5027   82.2851   12.6366 C.ar    1  UNL1        0.0349
     18 C          62.5516   82.8207   14.0368 C.ar    1  UNL1        0.0028
     19 C          62.4149   84.2943   14.2813 C.ar    1  UNL1        0.0002
     20 C          62.2294   85.2323   13.1256 C.ar    1  UNL1        0.0045
     21 C          62.1805   84.6966   11.7254 C.ar    1  UNL1        0.0538
     22 C          62.3171   83.2230   11.4809 C.ar    1  UNL1        0.0074
     23 C          62.4751   79.8445   13.5270 C.3     1  UNL1        0.0773
     24 C          62.6394   80.8114   12.3921 C.2     1  UNL1        0.1735
     25 O          62.9403   80.3048   11.0127 O.2     1  UNL1       -0.2913
     26 C          59.5403   93.1566    2.4673 C.ar    1  UNL1        0.0481
     27 C          60.1120   94.5420    2.5266 C.ar    1  UNL1        0.0176
     28 C          59.9264   95.4800    1.3707 C.ar    1  UNL1        0.0382
     29 C          59.1691   95.0324    0.1558 C.ar    1  UNL1        0.1386
     30 C          58.5974   93.6469    0.0966 C.ar    1  UNL1        0.0382
     31 C          58.7830   92.7090    1.2523 C.ar    1  UNL1        0.0176
     32 O          58.9836   95.9703   -1.0000 O.3     1  UNL1       -0.4754
     33 C          58.5682   95.4373   -2.3392 C.3     1  UNL1        0.2079
     34 C          59.3526   95.7977   -3.5660 C.3     1  UNL1        0.0760
     35 C          58.9666   96.8243   -4.5893 C.3     1  UNL1        0.1461
     36 O          60.0360   96.8558   -5.6406 O.3     1  UNL1       -0.3543
     37 C          61.0831   95.8487   -5.2670 C.3     1  UNL1        0.1137
     38 C          61.7536   96.3124   -6.5261 C.3     1  UNL1        0.0343
     39 C          60.6607   95.1948   -3.9848 C.3     1  UNL1        0.0378
     40 C          62.2703   94.9386   -5.1566 C.ar    1  UNL1        0.0296
     41 C          62.5338   93.9169   -6.2228 C.ar    1  UNL1        0.0025
     42 C          63.7210   93.0068   -6.1125 C.ar    1  UNL1        0.0295
     43 C          64.6447   93.1183   -4.9359 C.ar    1  UNL1        0.1424
     44 F          65.8320   92.2081   -4.8257 F       1  UNL1       -0.2041
     45 C          64.3813   94.1400   -3.8698 C.ar    1  UNL1        0.0590
     46 C          63.1941   95.0502   -3.9801 C.ar    1  UNL1        0.1405
     47 F          62.9307   96.0718   -2.9140 F       1  UNL1       -0.2044
@<TRIPOS>BOND
     1    23    24    1
     2    24    25    2
     3    24    17    1
     4    17    18   ar
     5    18    19   ar
     6    19    20   ar
     7    20    21   ar
     8    21    13    1
     9    13    14    2
    10    13    15   am
    11    15     7    1
    12     7     8   ar
    13     8     9   ar
    14     9    10   ar
    15    10     1    1
    16     1     2    1
    17     2     3    1
    18     3     4    1
    19     4    26    1
    20    26    27   ar
    21    27    28   ar
    22    28    29   ar
    23    29    32    1
    24    32    33    1
    25    34    33    1
    26    34    35    1
    27    35    36    1
    28    36    37    1
    29    37    38    1
    30    37    40    1
    31    40    41   ar
    32    41    42   ar
    33    42    43   ar
    34    43    44    1
    35    43    45   ar
    36    45    46   ar
    37    46    47    1
    38    37    39    1
    39    29    30   ar
    40    30    31   ar
    41     4     5    1
    42     5     6    1
    43    10    11   ar
    44    11    12   ar
    45    21    22   ar
    46    22    17   ar
    47    12     7   ar
    48     6     1    1
    49    31    26   ar
    50    39    34    1
    51    46    40   ar
    52    15    16    1
@<TRIPOS>MOLECULE
*****
 47 52 0 0 0
SMALL
GASTEIGER

@<TRIPOS>ATOM
      1 N          60.0613   90.3467    5.8427 N.pl3   1  UNL1       -0.3041
      2 C          61.2368   90.7700    5.0127 C.3     1  UNL1        0.1122
      3 C          61.0405   91.7045    3.8560 C.3     1  UNL1        0.1122
      4 N          59.6687   92.2158    3.5293 N.pl3   1  UNL1       -0.3041
      5 C          58.4932   91.7925    4.3594 C.3     1  UNL1        0.1122
      6 C          58.6895   90.8580    5.5161 C.3     1  UNL1        0.1122
      7 C          60.6501   87.5429    9.3129 C.ar    1  UNL1        0.0506
      8 C          60.0423   87.0400    8.0372 C.ar    1  UNL1        0.0159
      9 C          59.8461   87.9746    6.8805 C.ar    1  UNL1        0.0158
     10 C          60.2576   89.4121    6.9995 C.ar    1  UNL1        0.0480
     11 C          60.8653   89.9151    8.2753 C.ar    1  UNL1        0.0158
     12 C          61.0616   88.9805    9.4320 C.ar    1  UNL1        0.0159
     13 C          62.0029   85.6531   10.4743 C.2     1  UNL1        0.2495
     14 O          62.9631   85.6325    9.3221 O.2     1  UNL1       -0.2698
     15 N          60.8464   86.6083   10.4697 N.am    1  UNL1       -0.2804
     16 H          60.2161   86.6219   11.2259 H       1  UNL1        0.1552
     17 C          62.5545   84.3312   14.1754 C.ar    1  UNL1        0.0349
     18 C          62.5917   82.8495   13.9446 C.ar    1  UNL1        0.0028
     19 C          62.4326   82.3024   12.5570 C.ar    1  UNL1        0.0002
     20 C          62.2364   83.2369   11.4003 C.ar    1  UNL1        0.0045
     21 C          62.1992   84.7185   11.6311 C.ar    1  UNL1        0.0538
     22 C          62.3582   85.2657   13.0187 C.ar    1  UNL1        0.0074
     23 C          64.0846   85.0833   16.1357 C.3     1  UNL1        0.0773
     24 C          62.7136   84.8783   15.5630 C.2     1  UNL1        0.1735
     25 O          61.5016   85.2204   16.3778 O.2     1  UNL1       -0.2913
     26 C          59.4724   93.1504    2.3725 C.ar    1  UNL1        0.0481
     27 C          60.0195   94.5456    2.4344 C.ar    1  UNL1        0.0176
     28 C          59.8232   95.4802    1.2776 C.ar    1  UNL1        0.0382
     29 C          59.0798   95.0195    0.0590 C.ar    1  UNL1        0.1386
     30 C          58.5327   93.6241   -0.0029 C.ar    1  UNL1        0.0382
     31 C          58.7290   92.6896    1.1539 C.ar    1  UNL1        0.0176
     32 O          58.8835   95.9540   -1.0978 O.3     1  UNL1       -0.4754
     33 C          58.4918   95.4130   -2.4408 C.3     1  UNL1        0.2079
     34 C          59.2908   95.7754   -3.6575 C.3     1  UNL1        0.0760
     35 C          58.9147   96.8003   -4.6862 C.3     1  UNL1        0.1461
     36 O          59.9976   96.8349   -5.7236 O.3     1  UNL1       -0.3543
     37 C          61.0429   95.8314   -5.3360 C.3     1  UNL1        0.1137
     38 C          61.7282   96.2967   -6.5865 C.3     1  UNL1        0.0343
     39 C          60.6061   95.1766   -4.0591 C.3     1  UNL1        0.0378
     40 C          62.2316   94.9251   -5.2099 C.ar    1  UNL1        0.0296
     41 C          63.1100   95.0047   -3.9966 C.ar    1  UNL1        0.0025
     42 C          64.2986   94.0985   -3.8706 C.ar    1  UNL1        0.0295
     43 C          64.6088   93.1127   -4.9577 C.ar    1  UNL1        0.1424
     44 F          65.7975   92.2064   -4.8316 F       1  UNL1       -0.2041
     45 C          63.7305   93.0331   -6.1710 C.ar    1  UNL1        0.0590
     46 C          62.5418   93.9394   -6.2971 C.ar    1  UNL1        0.1405
     47 F          61.6634   93.8598   -7.5103 F       1  UNL1       -0.2044
@<TRIPOS>BOND
     1    23    24    1
     2    24    25    2
     3    24    17    1
     4    17    18   ar
     5    18    19   ar
     6    19    20   ar
     7    20    21   ar
     8    21    13    1
     9    13    14    2
    10    13    15   am
    11    15     7    1
    12     7     8   ar
    13     8     9   ar
    14     9    10   ar
    15    10     1    1
    16     1     2    1
    17     2     3    1
    18     3     4    1
    19     4    26    1
    20    26    27   ar
    21    27    28   ar
    22    28    29   ar
    23    29    32    1
    24    32    33    1
    25    34    33    1
    26    34    35    1
    27    35    36    1
    28    36    37    1
    29    37    38    1
    30    37    40    1
    31    40    41   ar
    32    41    42   ar
    33    42    43   ar
    34    43    44    1
    35    43    45   ar
    36    45    46   ar
    37    46    47    1
    38    37    39    1
    39    29    30   ar
    40    30    31   ar
    41     4     5    1
    42     5     6    1
    43    10    11   ar
    44    11    12   ar
    45    21    22   ar
    46    22    17   ar
    47    12     7   ar
    48     6     1    1
    49    31    26   ar
    50    39    34    1
    51    46    40   ar
    52    15    16    1
