@<TRIPOS>MOLECULE
*****
 28 31 0 0 0
SMALL
GASTEIGER

@<TRIPOS>ATOM
      1 C          64.8063   90.3862   14.2878 C.ar    1  UNL1        0.0516
      2 C          66.0886   91.1343   14.5027 C.ar    1  UNL1        0.0147
      3 C          66.5198   92.1816   13.5193 C.ar    1  UNL1        0.0010
      4 C          65.6687   92.4808   12.3208 C.ar    1  UNL1       -0.0014
      5 C          64.3865   91.7327   12.1058 C.ar    1  UNL1        0.0010
      6 C          63.9553   90.6854   13.0894 C.ar    1  UNL1        0.0147
      7 C          66.0999   93.5282   11.3374 C.2     1  UNL1        0.0158
      8 C          65.5470   94.9193   11.4324 C.2     1  UNL1        0.0487
      9 C          65.9782   95.9665   10.4491 C.2     1  UNL1        0.2355
     10 N          66.9624   95.6228    9.3705 N.2     1  UNL1       -0.0325
     11 C          67.5154   94.2317    9.2754 C.2     1  UNL1        0.3799
     12 N          68.4927   93.6028    8.3271 N.2     1  UNL1       -0.0106
     13 C          68.6655   92.1668    8.7245 C.2     1  UNL1        0.3351
     14 N          67.7949   91.9082    9.9184 N.2     1  UNL1       -0.2103
     15 C          67.0841   93.1844   10.2589 C.3     1  UNL1        0.2404
     16 O          64.3240   87.5720   13.3671 O.2     1  UNL1       -0.2522
     17 C          64.1340   87.9317   14.8109 C.2     1  UNL1        0.3082
     18 N          64.3752   89.3389   15.2712 N.am    1  UNL1       -0.2681
     19 N          63.7028   86.8845   15.7943 N.am    1  UNL1       -0.2673
     20 H          64.2504   89.5751   16.2188 H       1  UNL1        0.1564
     21 H          63.5781   87.1206   16.7419 H       1  UNL1        0.1564
     22 C          63.4616   85.4773   15.3340 C.ar    1  UNL1        0.0622
     23 C          62.0820   84.8922   15.4016 C.ar    1  UNL1        0.0156
     24 C          61.8408   83.4851   14.9413 C.ar    1  UNL1        0.0013
     25 C          62.9791   82.6631   14.4135 C.ar    1  UNL1        0.0009
     26 C          64.3587   83.2482   14.3460 C.ar    1  UNL1        0.0126
     27 C          64.5999   84.6554   14.8063 C.ar    1  UNL1        0.0711
     28 CL         65.9794   85.2404   14.7387 Cl      1  UNL1       -0.0810
@<TRIPOS>BOND
     1    16    17    2
     2    17    18   am
     3    18     1    1
     4     1     2   ar
     5     2     3   ar
     6     3     4   ar
     7     4     7    1
     8     7     8    2
     9     8     9    1
    10     9    10    2
    11    10    11    1
    12    11    12    2
    13    12    13    1
    14    13    14    2
    15    14    15    1
    16     4     5   ar
    17     5     6   ar
    18    17    19   am
    19    19    22    1
    20    22    23   ar
    21    23    24   ar
    22    24    25   ar
    23    25    26   ar
    24    26    27   ar
    25    27    28    1
    26     6     1   ar
    27    27    22   ar
    28    15     7    1
    29    15    11    1
    30    18    20    1
    31    19    21    1
@<TRIPOS>MOLECULE
*****
 28 31 0 0 0
SMALL
GASTEIGER

@<TRIPOS>ATOM
      1 C          63.0205   88.0894   12.2761 C.ar    1  UNL1        0.0516
      2 C          62.9957   89.3289   11.4315 C.ar    1  UNL1        0.0147
      3 C          63.7576   90.5464   11.8637 C.ar    1  UNL1        0.0010
      4 C          64.5444   90.5247   13.1406 C.ar    1  UNL1       -0.0014
      5 C          64.5693   89.2854   13.9853 C.ar    1  UNL1        0.0010
      6 C          63.8073   88.0678   13.5530 C.ar    1  UNL1        0.0147
      7 C          65.3064   91.7424   13.5728 C.2     1  UNL1        0.0158
      8 C          65.7530   91.8809   14.9981 C.2     1  UNL1        0.0487
      9 C          66.5149   93.0985   15.4303 C.2     1  UNL1        0.2355
     10 N          66.8303   94.1776   14.4372 N.2     1  UNL1       -0.0325
     11 C          66.3837   94.0391   13.0120 C.2     1  UNL1        0.3799
     12 N          66.5471   94.9318   11.8177 N.2     1  UNL1       -0.0106
     13 C          65.8861   94.2659   10.6474 C.2     1  UNL1        0.3351
     14 N          65.3142   92.9616   11.1184 N.2     1  UNL1       -0.2103
     15 C          65.6217   92.8214   12.5798 C.3     1  UNL1        0.2404
     16 O          63.8402   85.3780   13.2640 O.2     1  UNL1       -0.2522
     17 C          62.6684   85.5161   12.3378 C.2     1  UNL1        0.3082
     18 N          62.2586   86.8719   11.8439 N.am    1  UNL1       -0.2681
     19 N          61.9065   84.2985   11.9056 N.am    1  UNL1       -0.2673
     20 H          61.4895   86.9626   11.2360 H       1  UNL1        0.1564
     21 H          61.1374   84.3892   11.2977 H       1  UNL1        0.1564
     22 C          62.3164   82.9427   12.3996 C.ar    1  UNL1        0.0622
     23 C          61.8254   82.4486   13.7280 C.ar    1  UNL1        0.0156
     24 C          62.2352   81.0928   14.2220 C.ar    1  UNL1        0.0013
     25 C          63.1359   80.2312   13.3875 C.ar    1  UNL1        0.0009
     26 C          63.6268   80.7254   12.0590 C.ar    1  UNL1        0.0126
     27 C          63.2170   82.0812   11.5650 C.ar    1  UNL1        0.0711
     28 CL         63.7079   82.5753   10.2366 Cl      1  UNL1       -0.0810
@<TRIPOS>BOND
     1    16    17    2
     2    17    18   am
     3    18     1    1
     4     1     2   ar
     5     2     3   ar
     6     3     4   ar
     7     4     7    1
     8     7     8    2
     9     8     9    1
    10     9    10    2
    11    10    11    1
    12    11    12    2
    13    12    13    1
    14    13    14    2
    15    14    15    1
    16     4     5   ar
    17     5     6   ar
    18    17    19   am
    19    19    22    1
    20    22    23   ar
    21    23    24   ar
    22    24    25   ar
    23    25    26   ar
    24    26    27   ar
    25    27    28    1
    26     6     1   ar
    27    27    22   ar
    28    15     7    1
    29    15    11    1
    30    18    20    1
    31    19    21    1
@<TRIPOS>MOLECULE
*****
 28 31 0 0 0
SMALL
GASTEIGER

@<TRIPOS>ATOM
      1 C          62.7635   88.4956   11.6500 C.ar    1  UNL1        0.0516
      2 C          62.7890   89.4876   10.5250 C.ar    1  UNL1        0.0147
      3 C          63.5488   90.7721   10.6748 C.ar    1  UNL1        0.0010
      4 C          64.2833   91.0648   11.9495 C.ar    1  UNL1       -0.0014
      5 C          64.2579   90.0729   13.0745 C.ar    1  UNL1        0.0010
      6 C          63.4979   88.7883   12.9247 C.ar    1  UNL1        0.0147
      7 C          65.0432   92.3494   12.0993 C.2     1  UNL1        0.0158
      8 C          65.0810   93.3346   10.9688 C.2     1  UNL1        0.0487
      9 C          65.8409   94.6191   11.1185 C.2     1  UNL1        0.2355
     10 N          66.5630   94.9185   12.3988 N.2     1  UNL1       -0.0325
     11 C          66.5252   93.9333   13.5292 C.2     1  UNL1        0.3799
     12 N          67.1358   93.9538   14.8991 N.2     1  UNL1       -0.0106
     13 C          66.7533   92.6818   15.5961 C.2     1  UNL1        0.3351
     14 N          65.9063   91.8752   14.6569 N.2     1  UNL1       -0.2103
     15 C          65.7653   92.6488   13.3795 C.3     1  UNL1        0.2404
     16 O          63.8980   85.9449   12.7483 O.2     1  UNL1       -0.2522
     17 C          62.5709   85.9357   12.0494 C.2     1  UNL1        0.3082
     18 N          62.0036   87.2111   11.5002 N.am    1  UNL1       -0.2681
     19 N          61.8110   84.6512   11.8996 N.am    1  UNL1       -0.2673
     20 H          61.1325   87.2051   11.0415 H       1  UNL1        0.1564
     21 H          60.9399   84.6452   11.4409 H       1  UNL1        0.1564
     22 C          62.3783   83.3757   12.4488 C.ar    1  UNL1        0.0622
     23 C          61.9650   82.8953   13.8083 C.ar    1  UNL1        0.0156
     24 C          62.5322   81.6199   14.3575 C.ar    1  UNL1        0.0013
     25 C          63.5127   80.8249   13.5472 C.ar    1  UNL1        0.0009
     26 C          63.9259   81.3054   12.1875 C.ar    1  UNL1        0.0126
     27 C          63.3587   82.5808   11.6384 C.ar    1  UNL1        0.0711
     28 CL         63.7719   83.0612   10.2788 Cl      1  UNL1       -0.0810
@<TRIPOS>BOND
     1    16    17    2
     2    17    18   am
     3    18     1    1
     4     1     2   ar
     5     2     3   ar
     6     3     4   ar
     7     4     7    1
     8     7     8    2
     9     8     9    1
    10     9    10    2
    11    10    11    1
    12    11    12    2
    13    12    13    1
    14    13    14    2
    15    14    15    1
    16     4     5   ar
    17     5     6   ar
    18    17    19   am
    19    19    22    1
    20    22    23   ar
    21    23    24   ar
    22    24    25   ar
    23    25    26   ar
    24    26    27   ar
    25    27    28    1
    26     6     1   ar
    27    27    22   ar
    28    15     7    1
    29    15    11    1
    30    18    20    1
    31    19    21    1
@<TRIPOS>MOLECULE
*****
 28 31 0 0 0
SMALL
GASTEIGER

@<TRIPOS>ATOM
      1 C          64.2099   90.2902   13.1440 C.ar    1  UNL1        0.0516
      2 C          64.7146   89.3460   14.1948 C.ar    1  UNL1        0.0147
      3 C          64.3618   87.8898   14.1264 C.ar    1  UNL1        0.0010
      4 C          63.5043   87.3775   13.0072 C.ar    1  UNL1       -0.0014
      5 C          62.9997   88.3216   11.9565 C.ar    1  UNL1        0.0010
      6 C          63.3525   89.7779   12.0249 C.ar    1  UNL1        0.0147
      7 C          63.1516   85.9212   12.9388 C.2     1  UNL1        0.0158
      8 C          62.9444   85.2614   11.6078 C.2     1  UNL1        0.0487
      9 C          62.5916   83.8052   11.5394 C.2     1  UNL1        0.2355
     10 N          62.4460   83.0085   12.8021 N.2     1  UNL1       -0.0325
     11 C          62.6532   83.6683   14.1331 C.2     1  UNL1        0.3799
     12 N          62.5780   83.1432   15.5362 N.2     1  UNL1       -0.0106
     13 C          62.8843   84.2750   16.4717 C.2     1  UNL1        0.3351
     14 N          63.1488   85.4996   15.6468 N.2     1  UNL1       -0.2103
     15 C          63.0060   85.1247   14.2015 C.3     1  UNL1        0.2404
     16 O          65.5839   91.6111   10.8273 O.2     1  UNL1       -0.2522
     17 C          65.2497   92.4070   12.0540 C.2     1  UNL1        0.3082
     18 N          64.5627   91.7464   13.2124 N.am    1  UNL1       -0.2681
     19 N          65.6025   93.8632   12.1224 N.am    1  UNL1       -0.2673
     20 H          64.3434   92.2688   14.0176 H       1  UNL1        0.1564
     21 H          65.3831   94.3855   12.9276 H       1  UNL1        0.1564
     22 C          66.2895   94.5238   10.9640 C.ar    1  UNL1        0.0622
     23 C          66.8992   93.6880    9.8779 C.ar    1  UNL1        0.0156
     24 C          67.5861   94.3484    8.7195 C.ar    1  UNL1        0.0013
     25 C          67.6635   95.8447    8.6473 C.ar    1  UNL1        0.0009
     26 C          67.0537   96.6806    9.7335 C.ar    1  UNL1        0.0126
     27 C          66.3667   96.0200   10.8919 C.ar    1  UNL1        0.0711
     28 CL         65.7571   96.8558   11.9781 Cl      1  UNL1       -0.0810
@<TRIPOS>BOND
     1    16    17    2
     2    17    18   am
     3    18     1    1
     4     1     2   ar
     5     2     3   ar
     6     3     4   ar
     7     4     7    1
     8     7     8    2
     9     8     9    1
    10     9    10    2
    11    10    11    1
    12    11    12    2
    13    12    13    1
    14    13    14    2
    15    14    15    1
    16     4     5   ar
    17     5     6   ar
    18    17    19   am
    19    19    22    1
    20    22    23   ar
    21    23    24   ar
    22    24    25   ar
    23    25    26   ar
    24    26    27   ar
    25    27    28    1
    26     6     1   ar
    27    27    22   ar
    28    15     7    1
    29    15    11    1
    30    18    20    1
    31    19    21    1
@<TRIPOS>MOLECULE
*****
 28 31 0 0 0
SMALL
GASTEIGER

@<TRIPOS>ATOM
      1 C          63.3476   87.5549   12.7252 C.ar    1  UNL1        0.0516
      2 C          64.0397   87.3020   14.0318 C.ar    1  UNL1        0.0147
      3 C          64.5909   88.4507   14.8233 C.ar    1  UNL1        0.0010
      4 C          64.4501   89.8526   14.3081 C.ar    1  UNL1       -0.0014
      5 C          63.7581   90.1055   13.0016 C.ar    1  UNL1        0.0010
      6 C          63.2068   88.9567   12.2102 C.ar    1  UNL1        0.0147
      7 C          65.0014   91.0013   15.0996 C.2     1  UNL1        0.0158
      8 C          64.2495   91.5225   16.2883 C.2     1  UNL1        0.0487
      9 C          64.8007   92.6712   17.0798 C.2     1  UNL1        0.2355
     10 N          66.1039   93.2989   16.6826 N.2     1  UNL1       -0.0325
     11 C          66.8558   92.7777   15.4939 C.2     1  UNL1        0.3799
     12 N          68.1546   93.1912   14.8677 N.2     1  UNL1       -0.0106
     13 C          68.4061   92.2980   13.6892 C.2     1  UNL1        0.3351
     14 N          67.2627   91.3325   13.5870 N.2     1  UNL1       -0.2103
     15 C          66.3046   91.6290   14.7024 C.3     1  UNL1        0.2404
     16 O          63.4059   84.7815   13.8674 O.2     1  UNL1       -0.2522
     17 C          62.8255   85.0194   12.5049 C.2     1  UNL1        0.3082
     18 N          62.7964   86.4062   11.9338 N.am    1  UNL1       -0.2681
     19 N          62.2743   83.8707   11.7135 N.am    1  UNL1       -0.2673
     20 H          62.4154   86.5624   11.0395 H       1  UNL1        0.1564
     21 H          61.8933   84.0269   10.8192 H       1  UNL1        0.1564
     22 C          62.3034   82.4839   12.2845 C.ar    1  UNL1        0.0622
     23 C          61.6801   82.2100   13.6211 C.ar    1  UNL1        0.0156
     24 C          61.7092   80.8233   14.1922 C.ar    1  UNL1        0.0013
     25 C          62.3616   79.7105   13.4267 C.ar    1  UNL1        0.0009
     26 C          62.9849   79.9844   12.0900 C.ar    1  UNL1        0.0126
     27 C          62.9558   81.3712   11.5190 C.ar    1  UNL1        0.0711
     28 CL         63.5791   81.6450   10.1824 Cl      1  UNL1       -0.0810
@<TRIPOS>BOND
     1    16    17    2
     2    17    18   am
     3    18     1    1
     4     1     2   ar
     5     2     3   ar
     6     3     4   ar
     7     4     7    1
     8     7     8    2
     9     8     9    1
    10     9    10    2
    11    10    11    1
    12    11    12    2
    13    12    13    1
    14    13    14    2
    15    14    15    1
    16     4     5   ar
    17     5     6   ar
    18    17    19   am
    19    19    22    1
    20    22    23   ar
    21    23    24   ar
    22    24    25   ar
    23    25    26   ar
    24    26    27   ar
    25    27    28    1
    26     6     1   ar
    27    27    22   ar
    28    15     7    1
    29    15    11    1
    30    18    20    1
    31    19    21    1
@<TRIPOS>MOLECULE
*****
 28 31 0 0 0
SMALL
GASTEIGER

@<TRIPOS>ATOM
      1 C          62.7470   87.3211   12.1118 C.ar    1  UNL1        0.0516
      2 C          63.4358   86.4569   13.1262 C.ar    1  UNL1        0.0147
      3 C          63.4861   84.9701   12.9345 C.ar    1  UNL1        0.0010
      4 C          62.8476   84.3474   11.7284 C.ar    1  UNL1       -0.0014
      5 C          62.1588   85.2115   10.7141 C.ar    1  UNL1        0.0010
      6 C          62.1085   86.6984   10.9058 C.ar    1  UNL1        0.0147
      7 C          62.8979   82.8605   11.5367 C.2     1  UNL1        0.0158
      8 C          63.4609   82.2862   10.2705 C.2     1  UNL1        0.0487
      9 C          63.5112   80.7994   10.0788 C.2     1  UNL1        0.2355
     10 N          62.9985   79.8868   11.1533 N.2     1  UNL1       -0.0325
     11 C          62.4355   80.4612   12.4194 C.2     1  UNL1        0.3799
     12 N          61.8604   79.8160   13.6454 N.2     1  UNL1       -0.0106
     13 C          61.4546   80.9041   14.5948 C.2     1  UNL1        0.3351
     14 N          61.7790   82.2218   13.9556 N.2     1  UNL1       -0.2103
     15 C          62.3852   81.9480   12.6111 C.3     1  UNL1        0.2404
     16 O          64.6922   88.6617   13.9609 O.2     1  UNL1       -0.2522
     17 C          63.6693   89.4783   13.2281 C.2     1  UNL1        0.3082
     18 N          62.6967   88.8079   12.3035 N.am    1  UNL1       -0.2681
     19 N          63.6191   90.9650   13.4198 N.am    1  UNL1       -0.2673
     20 H          62.0254   89.3438   11.8225 H       1  UNL1        0.1564
     21 H          62.9477   91.5009   12.9388 H       1  UNL1        0.1564
     22 C          64.5916   91.6354   14.3444 C.ar    1  UNL1        0.0622
     23 C          64.3478   91.6260   15.8244 C.ar    1  UNL1        0.0156
     24 C          65.3203   92.2963   16.7490 C.ar    1  UNL1        0.0013
     25 C          66.5367   92.9761   16.1935 C.ar    1  UNL1        0.0009
     26 C          66.7805   92.9855   14.7134 C.ar    1  UNL1        0.0126
     27 C          65.8079   92.3151   13.7889 C.ar    1  UNL1        0.0711
     28 CL         66.0517   92.3246   12.3089 Cl      1  UNL1       -0.0810
@<TRIPOS>BOND
     1    16    17    2
     2    17    18   am
     3    18     1    1
     4     1     2   ar
     5     2     3   ar
     6     3     4   ar
     7     4     7    1
     8     7     8    2
     9     8     9    1
    10     9    10    2
    11    10    11    1
    12    11    12    2
    13    12    13    1
    14    13    14    2
    15    14    15    1
    16     4     5   ar
    17     5     6   ar
    18    17    19   am
    19    19    22    1
    20    22    23   ar
    21    23    24   ar
    22    24    25   ar
    23    25    26   ar
    24    26    27   ar
    25    27    28    1
    26     6     1   ar
    27    27    22   ar
    28    15     7    1
    29    15    11    1
    30    18    20    1
    31    19    21    1
@<TRIPOS>MOLECULE
*****
 28 31 0 0 0
SMALL
GASTEIGER

@<TRIPOS>ATOM
      1 C          63.5499   87.7193   15.7732 C.ar    1  UNL1        0.0516
      2 C          64.5156   87.7428   14.6255 C.ar    1  UNL1        0.0147
      3 C          65.1161   89.0421   14.1772 C.ar    1  UNL1        0.0010
      4 C          64.7510   90.3180   14.8765 C.ar    1  UNL1       -0.0014
      5 C          63.7854   90.2945   16.0241 C.ar    1  UNL1        0.0010
      6 C          63.1848   88.9951   16.4724 C.ar    1  UNL1        0.0147
      7 C          65.3516   91.6174   14.4281 C.2     1  UNL1        0.0158
      8 C          66.1286   92.4584   15.3971 C.2     1  UNL1        0.0487
      9 C          66.7292   93.7577   14.9488 C.2     1  UNL1        0.2355
     10 N          66.5528   94.2160   13.5314 N.2     1  UNL1       -0.0325
     11 C          65.7759   93.3750   12.5624 C.2     1  UNL1        0.3799
     12 N          65.4380   93.5663   11.1135 N.2     1  UNL1       -0.0106
     13 C          64.6286   92.3852   10.6664 C.2     1  UNL1        0.3351
     14 N          64.4662   91.4639   11.8390 N.2     1  UNL1       -0.2103
     15 C          65.1753   92.0756   13.0108 C.3     1  UNL1        0.2404
     16 O          63.6248   85.3283   13.9627 O.2     1  UNL1       -0.2522
     17 C          62.9868   85.2245   15.3163 C.2     1  UNL1        0.3082
     18 N          62.9493   86.4200   16.2215 N.am    1  UNL1       -0.2681
     19 N          62.3862   83.9252   15.7646 N.am    1  UNL1       -0.2673
     20 H          62.5306   86.3519   17.1099 H       1  UNL1        0.1564
     21 H          61.9675   83.8570   16.6530 H       1  UNL1        0.1564
     22 C          62.4237   82.7296   14.8594 C.ar    1  UNL1        0.0622
     23 C          61.1551   82.0026   14.5245 C.ar    1  UNL1        0.0156
     24 C          61.1925   80.8071   13.6193 C.ar    1  UNL1        0.0013
     25 C          62.4984   80.3386   13.0491 C.ar    1  UNL1        0.0009
     26 C          63.7670   81.0657   13.3841 C.ar    1  UNL1        0.0126
     27 C          63.7296   82.2613   14.2893 C.ar    1  UNL1        0.0711
     28 CL         64.9981   82.9883   14.6242 Cl      1  UNL1       -0.0810
@<TRIPOS>BOND
     1    16    17    2
     2    17    18   am
     3    18     1    1
     4     1     2   ar
     5     2     3   ar
     6     3     4   ar
     7     4     7    1
     8     7     8    2
     9     8     9    1
    10     9    10    2
    11    10    11    1
    12    11    12    2
    13    12    13    1
    14    13    14    2
    15    14    15    1
    16     4     5   ar
    17     5     6   ar
    18    17    19   am
    19    19    22    1
    20    22    23   ar
    21    23    24   ar
    22    24    25   ar
    23    25    26   ar
    24    26    27   ar
    25    27    28    1
    26     6     1   ar
    27    27    22   ar
    28    15     7    1
    29    15    11    1
    30    18    20    1
    31    19    21    1
@<TRIPOS>MOLECULE
*****
 28 31 0 0 0
SMALL
GASTEIGER

@<TRIPOS>ATOM
      1 C          63.1514   87.4025   12.6173 C.ar    1  UNL1        0.0516
      2 C          63.7880   86.6616   13.7558 C.ar    1  UNL1        0.0147
      3 C          63.5729   85.1845   13.9030 C.ar    1  UNL1        0.0010
      4 C          62.7212   84.4480   12.9117 C.ar    1  UNL1       -0.0014
      5 C          62.0847   85.1888   11.7733 C.ar    1  UNL1        0.0010
      6 C          62.2998   86.6661   11.6261 C.ar    1  UNL1        0.0147
      7 C          62.5061   82.9709   13.0590 C.2     1  UNL1        0.0158
      8 C          61.9264   82.4202   14.3281 C.2     1  UNL1        0.0487
      9 C          61.7114   80.9431   14.4753 C.2     1  UNL1        0.2355
     10 N          62.0760   80.0165   13.3535 N.2     1  UNL1       -0.0325
     11 C          62.6557   80.5672   12.0844 C.2     1  UNL1        0.3799
     12 N          63.1078   79.9043   10.8170 N.2     1  UNL1       -0.0106
     13 C          63.6023   80.9718    9.8865 C.2     1  UNL1        0.3351
     14 N          63.4558   82.2944   10.5787 N.2     1  UNL1       -0.2103
     15 C          62.8708   82.0443   11.9371 C.3     1  UNL1        0.2404
     16 O          65.0369   88.8346   14.4595 O.2     1  UNL1       -0.2522
     17 C          64.3093   89.5957   13.3912 C.2     1  UNL1        0.3082
     18 N          63.3665   88.8795   12.4701 N.am    1  UNL1       -0.2681
     19 N          64.5244   91.0728   13.2440 N.am    1  UNL1       -0.2673
     20 H          62.8889   89.3790   11.7689 H       1  UNL1        0.1564
     21 H          64.0468   91.5723   12.5428 H       1  UNL1        0.1564
     22 C          65.4672   91.7890   14.1651 C.ar    1  UNL1        0.0622
     23 C          65.1540   91.8897   15.6286 C.ar    1  UNL1        0.0156
     24 C          66.0967   92.6059   16.5497 C.ar    1  UNL1        0.0013
     25 C          67.3526   93.2213   16.0073 C.ar    1  UNL1        0.0009
     26 C          67.6657   93.1205   14.5437 C.ar    1  UNL1        0.0126
     27 C          66.7229   92.4043   13.6226 C.ar    1  UNL1        0.0711
     28 CL         67.0360   92.3036   12.1591 Cl      1  UNL1       -0.0810
@<TRIPOS>BOND
     1    16    17    2
     2    17    18   am
     3    18     1    1
     4     1     2   ar
     5     2     3   ar
     6     3     4   ar
     7     4     7    1
     8     7     8    2
     9     8     9    1
    10     9    10    2
    11    10    11    1
    12    11    12    2
    13    12    13    1
    14    13    14    2
    15    14    15    1
    16     4     5   ar
    17     5     6   ar
    18    17    19   am
    19    19    22    1
    20    22    23   ar
    21    23    24   ar
    22    24    25   ar
    23    25    26   ar
    24    26    27   ar
    25    27    28    1
    26     6     1   ar
    27    27    22   ar
    28    15     7    1
    29    15    11    1
    30    18    20    1
    31    19    21    1
@<TRIPOS>MOLECULE
*****
 28 31 0 0 0
SMALL
GASTEIGER

@<TRIPOS>ATOM
      1 C          63.5664   86.8944   15.2436 C.ar    1  UNL1        0.0516
      2 C          63.7680   86.5725   13.7924 C.ar    1  UNL1        0.0147
      3 C          63.4835   85.1902   13.2843 C.ar    1  UNL1        0.0010
      4 C          62.9973   84.1297   14.2273 C.ar    1  UNL1       -0.0014
      5 C          62.7957   84.4516   15.6784 C.ar    1  UNL1        0.0010
      6 C          63.0802   85.8340   16.1865 C.ar    1  UNL1        0.0147
      7 C          62.7127   82.7474   13.7191 C.2     1  UNL1        0.0158
      8 C          62.0011   81.7584   14.5940 C.2     1  UNL1        0.0487
      9 C          61.7166   80.3762   14.0858 C.2     1  UNL1        0.2355
     10 N          62.1436   79.9828   12.7027 N.2     1  UNL1       -0.0325
     11 C          62.8553   80.9718   11.8278 C.2     1  UNL1        0.3799
     12 N          63.3926   80.8717   10.4310 N.2     1  UNL1       -0.0106
     13 C          64.0092   82.1921   10.0758 C.2     1  UNL1        0.3351
     14 N          63.8530   83.1083   11.2532 N.2     1  UNL1       -0.2103
     15 C          63.1398   82.3541   12.3360 C.3     1  UNL1        0.2404
     16 O          64.6131   88.9940   13.3738 O.2     1  UNL1       -0.2522
     17 C          64.3743   89.3265   14.8168 C.2     1  UNL1        0.3082
     18 N          63.8510   88.2767   15.7517 N.am    1  UNL1       -0.2681
     19 N          64.6588   90.7088   15.3249 N.am    1  UNL1       -0.2673
     20 H          63.6942   88.4949   16.6988 H       1  UNL1        0.1564
     21 H          64.5021   90.9270   16.2721 H       1  UNL1        0.1564
     22 C          65.1822   91.7587   14.3900 C.ar    1  UNL1        0.0622
     23 C          64.7317   91.7808   12.9595 C.ar    1  UNL1        0.0156
     24 C          65.2550   92.8306   12.0246 C.ar    1  UNL1        0.0013
     25 C          66.2287   93.8583   12.5202 C.ar    1  UNL1        0.0009
     26 C          66.6793   93.8361   13.9509 C.ar    1  UNL1        0.0126
     27 C          66.1559   92.7862   14.8858 C.ar    1  UNL1        0.0711
     28 CL         66.6064   92.7641   16.3163 Cl      1  UNL1       -0.0810
@<TRIPOS>BOND
     1    16    17    2
     2    17    18   am
     3    18     1    1
     4     1     2   ar
     5     2     3   ar
     6     3     4   ar
     7     4     7    1
     8     7     8    2
     9     8     9    1
    10     9    10    2
    11    10    11    1
    12    11    12    2
    13    12    13    1
    14    13    14    2
    15    14    15    1
    16     4     5   ar
    17     5     6   ar
    18    17    19   am
    19    19    22    1
    20    22    23   ar
    21    23    24   ar
    22    24    25   ar
    23    25    26   ar
    24    26    27   ar
    25    27    28    1
    26     6     1   ar
    27    27    22   ar
    28    15     7    1
    29    15    11    1
    30    18    20    1
    31    19    21    1
