@<TRIPOS>MOLECULE
*****
 36 41 0 0 0
SMALL
GASTEIGER

@<TRIPOS>ATOM
      1 C          62.8498   85.8219   12.9164 C.ar    1  UNL1        0.1239
      2 N          63.6657   86.9091   13.5505 N.ar    1  UNL1       -0.2305
      3 C          63.4891   88.1562   12.7359 C.ar    1  UNL1        0.1014
      4 C          62.5640   87.8397   11.5984 C.ar    1  UNL1        0.1141
      5 C          62.0304   88.6789   10.4754 C.ar    1  UNL1        0.1432
      6 N          62.4256   90.1216   10.3639 N.pl3   1  UNL1       -0.3414
      7 N          61.1016   88.0753    9.4639 N.ar    1  UNL1       -0.2265
      8 C          60.7065   86.6326    9.5754 C.ar    1  UNL1        0.1193
      9 C          61.2402   85.7935   10.6984 C.ar    1  UNL1        0.1020
     10 N          62.1689   86.3970   11.7098 N.ar    1  UNL1       -0.2885
     11 H          63.0352   90.5177   11.0278 H       1  UNL1        0.1438
     12 H          62.0754   90.6724    9.6269 H       1  UNL1        0.1438
     13 C          64.1259   89.4863   13.0107 C.ar    1  UNL1        0.0207
     14 C          64.4713   89.8762   14.4173 C.ar    1  UNL1        0.0016
     15 C          65.1080   91.2063   14.6920 C.ar    1  UNL1        0.0015
     16 C          65.3993   92.1465   13.5601 C.ar    1  UNL1        0.0177
     17 C          66.0360   93.4766   13.8348 C.ar    1  UNL1        0.0030
     18 C          66.3272   94.4168   12.7029 C.ar    1  UNL1        0.0191
     19 C          65.9817   94.0268   11.2962 C.ar    1  UNL1        0.0812
     20 N          65.3450   92.6968   11.0215 N.ar    1  UNL1       -0.2454
     21 C          65.0538   91.7566   12.1535 C.ar    1  UNL1        0.0813
     22 C          64.4171   90.4265   11.8788 C.ar    1  UNL1        0.0206
     23 C          66.2729   94.9670   10.1643 C.ar    1  UNL1        0.0176
     24 C          65.2140   95.9156    9.6859 C.ar    1  UNL1        0.0015
     25 C          65.5052   96.8558    8.5540 C.ar    1  UNL1        0.0000
     26 C          66.8554   96.8474    7.9005 C.ar    1  UNL1        0.0000
     27 C          67.9143   95.8988    8.3789 C.ar    1  UNL1        0.0000
     28 C          67.6230   94.9586    9.5108 C.ar    1  UNL1        0.0015
     29 C          62.5724   82.4079   14.0918 C.3     1  UNL1        0.0168
     30 C          62.9841   83.0558   12.8031 C.3     1  UNL1        0.0089
     31 C          62.7349   84.4077   13.4032 C.3     1  UNL1        0.0573
     32 C          62.3231   83.7598   14.6919 C.3     1  UNL1        0.0089
     33 C          62.4575   80.9937   14.5786 C.3     1  UNL1        0.0722
     34 C          60.2617   79.6924   14.0944 C.3     1  UNL1        0.0897
     35 N          61.6976   79.9824   13.7725 N.3     1  UNL1       -0.2703
     36 C          62.3739   79.2610   12.6444 C.3     1  UNL1        0.0897
@<TRIPOS>BOND
     1    34    35    1
     2    35    36    1
     3    35    33    1
     4    29    33    1
     5    29    30    1
     6    30    31    1
     7    31     1    1
     8     1     2   ar
     9     2     3   ar
    10     3    13    1
    11    13    14   ar
    12    14    15   ar
    13    15    16   ar
    14    16    17   ar
    15    17    18   ar
    16    18    19   ar
    17    19    23    1
    18    23    24   ar
    19    24    25   ar
    20    25    26   ar
    21    26    27   ar
    22    27    28   ar
    23    19    20   ar
    24    20    21   ar
    25    21    22   ar
    26     3     4   ar
    27     4     5   ar
    28     5     6    1
    29     5     7   ar
    30     7     8   ar
    31     8     9   ar
    32     9    10   ar
    33    31    32    1
    34    32    29    1
    35    10     1   ar
    36    22    13   ar
    37    10     4   ar
    38    21    16   ar
    39    28    23   ar
    40     6    11    1
    41     6    12    1
@<TRIPOS>MOLECULE
*****
 36 41 0 0 0
SMALL
GASTEIGER

@<TRIPOS>ATOM
      1 C          64.0442   90.7286   12.0268 C.ar    1  UNL1        0.1239
      2 N          64.5234   89.5374   12.8023 N.ar    1  UNL1       -0.2305
      3 C          63.5072   88.4449   12.6488 C.ar    1  UNL1        0.1014
      4 C          62.3998   88.9609   11.7783 C.ar    1  UNL1        0.1141
      5 C          61.1322   88.3278   11.2861 C.ar    1  UNL1        0.1432
      6 N          60.8003   86.9164   11.6706 N.pl3   1  UNL1       -0.3414
      7 N          60.1964   89.1061   10.4095 N.ar    1  UNL1       -0.2265
      8 C          60.5282   90.5175   10.0251 C.ar    1  UNL1        0.1193
      9 C          61.7960   91.1506   10.5173 C.ar    1  UNL1        0.1020
     10 N          62.7317   90.3723   11.3939 N.ar    1  UNL1       -0.2885
     11 H          61.4145   86.4056   12.2459 H       1  UNL1        0.1438
     12 H          59.9683   86.5009   11.3475 H       1  UNL1        0.1438
     13 C          63.5846   87.0766   13.2586 C.ar    1  UNL1        0.0207
     14 C          63.9035   86.9220   14.7161 C.ar    1  UNL1        0.0016
     15 C          63.9809   85.5538   15.3258 C.ar    1  UNL1        0.0015
     16 C          63.7395   84.3401   14.4781 C.ar    1  UNL1        0.0177
     17 C          63.8170   82.9718   15.0879 C.ar    1  UNL1        0.0030
     18 C          63.5756   81.7581   14.2401 C.ar    1  UNL1        0.0191
     19 C          63.2567   81.9127   12.7825 C.ar    1  UNL1        0.0812
     20 N          63.1793   83.2810   12.1728 N.ar    1  UNL1       -0.2454
     21 C          63.4207   84.4947   13.0206 C.ar    1  UNL1        0.0813
     22 C          63.3432   85.8629   12.4108 C.ar    1  UNL1        0.0206
     23 C          63.0153   80.6991   11.9348 C.ar    1  UNL1        0.0176
     24 C          62.6614   79.3919   12.5799 C.ar    1  UNL1        0.0015
     25 C          62.4200   78.1782   11.7321 C.ar    1  UNL1        0.0000
     26 C          62.5325   78.2717   10.2392 C.ar    1  UNL1        0.0000
     27 C          62.8864   79.5788    9.5942 C.ar    1  UNL1        0.0000
     28 C          63.1278   80.7925   10.4419 C.ar    1  UNL1        0.0015
     29 C          65.7553   93.9067   11.7338 C.3     1  UNL1        0.0168
     30 C          64.9511   93.0455   10.8055 C.3     1  UNL1        0.0089
     31 C          64.7530   92.0450   11.9054 C.3     1  UNL1        0.0573
     32 C          65.5572   92.9062   12.8336 C.3     1  UNL1        0.0089
     33 C          66.4641   95.2231   11.6124 C.3     1  UNL1        0.0722
     34 C          64.9527   96.8554   10.2704 C.3     1  UNL1        0.0897
     35 N          66.2351   96.0901   10.4100 N.3     1  UNL1       -0.2703
     36 C          67.2887   96.1918    9.3470 C.3     1  UNL1        0.0897
@<TRIPOS>BOND
     1    34    35    1
     2    35    36    1
     3    35    33    1
     4    29    33    1
     5    29    30    1
     6    30    31    1
     7    31     1    1
     8     1     2   ar
     9     2     3   ar
    10     3    13    1
    11    13    14   ar
    12    14    15   ar
    13    15    16   ar
    14    16    17   ar
    15    17    18   ar
    16    18    19   ar
    17    19    23    1
    18    23    24   ar
    19    24    25   ar
    20    25    26   ar
    21    26    27   ar
    22    27    28   ar
    23    19    20   ar
    24    20    21   ar
    25    21    22   ar
    26     3     4   ar
    27     4     5   ar
    28     5     6    1
    29     5     7   ar
    30     7     8   ar
    31     8     9   ar
    32     9    10   ar
    33    31    32    1
    34    32    29    1
    35    10     1   ar
    36    22    13   ar
    37    10     4   ar
    38    21    16   ar
    39    28    23   ar
    40     6    11    1
    41     6    12    1
@<TRIPOS>MOLECULE
*****
 36 41 0 0 0
SMALL
GASTEIGER

@<TRIPOS>ATOM
      1 C          64.2901   89.0080   13.8373 C.ar    1  UNL1        0.1239
      2 N          63.4419   89.1578   12.6092 N.ar    1  UNL1       -0.2305
      3 C          62.9263   87.8002   12.2335 C.ar    1  UNL1        0.1014
      4 C          63.4559   86.8114   13.2294 C.ar    1  UNL1        0.1141
      5 C          63.2795   85.3277   13.3618 C.ar    1  UNL1        0.1432
      6 N          62.4366   84.5813   12.3706 N.pl3   1  UNL1       -0.3414
      7 N          63.9459   84.5904   14.4853 N.ar    1  UNL1       -0.2265
      8 C          64.7888   85.3368   15.4765 C.ar    1  UNL1        0.1193
      9 C          64.9652   86.8206   15.3441 C.ar    1  UNL1        0.1020
     10 N          64.2988   87.5578   14.2206 N.ar    1  UNL1       -0.2885
     11 H          61.9992   85.0652   11.6332 H       1  UNL1        0.1438
     12 H          62.3208   83.6075   12.4574 H       1  UNL1        0.1438
     13 C          62.0373   87.4865   11.0668 C.ar    1  UNL1        0.0207
     14 C          61.5780   86.0782   10.8312 C.ar    1  UNL1        0.0016
     15 C          60.6890   85.7645    9.6645 C.ar    1  UNL1        0.0015
     16 C          60.2593   86.8592    8.7334 C.ar    1  UNL1        0.0177
     17 C          59.3702   86.5455    7.5666 C.ar    1  UNL1        0.0030
     18 C          58.9405   87.6402    6.6355 C.ar    1  UNL1        0.0191
     19 C          59.3999   89.0486    6.8711 C.ar    1  UNL1        0.0812
     20 N          60.2889   89.3623    8.0378 N.ar    1  UNL1       -0.2454
     21 C          60.7186   88.2676    8.9690 C.ar    1  UNL1        0.0813
     22 C          61.6076   88.5812   10.1357 C.ar    1  UNL1        0.0206
     23 C          58.9702   90.1433    5.9400 C.ar    1  UNL1        0.0176
     24 C          59.9995   90.9495    5.2046 C.ar    1  UNL1        0.0015
     25 C          59.5698   92.0442    4.2735 C.ar    1  UNL1        0.0000
     26 C          58.1108   92.3327    4.0777 C.ar    1  UNL1        0.0000
     27 C          57.0816   91.5266    4.8131 C.ar    1  UNL1        0.0000
     28 C          57.5113   90.4319    5.7443 C.ar    1  UNL1        0.0015
     29 C          66.0143   91.6785   15.5721 C.3     1  UNL1        0.0168
     30 C          64.6069   91.1599   15.5552 C.3     1  UNL1        0.0089
     31 C          65.0043   90.1142   14.5559 C.3     1  UNL1        0.0573
     32 C          66.4117   90.6328   14.5728 C.3     1  UNL1        0.0089
     33 C          66.7285   92.7847   16.2907 C.3     1  UNL1        0.0722
     34 C          68.8675   94.2436   16.0767 C.3     1  UNL1        0.0897
     35 N          67.5594   93.7666   15.5190 N.3     1  UNL1       -0.2703
     36 C          67.0821   94.2715   14.1896 C.3     1  UNL1        0.0897
@<TRIPOS>BOND
     1    34    35    1
     2    35    36    1
     3    35    33    1
     4    29    33    1
     5    29    30    1
     6    30    31    1
     7    31     1    1
     8     1     2   ar
     9     2     3   ar
    10     3    13    1
    11    13    14   ar
    12    14    15   ar
    13    15    16   ar
    14    16    17   ar
    15    17    18   ar
    16    18    19   ar
    17    19    23    1
    18    23    24   ar
    19    24    25   ar
    20    25    26   ar
    21    26    27   ar
    22    27    28   ar
    23    19    20   ar
    24    20    21   ar
    25    21    22   ar
    26     3     4   ar
    27     4     5   ar
    28     5     6    1
    29     5     7   ar
    30     7     8   ar
    31     8     9   ar
    32     9    10   ar
    33    31    32    1
    34    32    29    1
    35    10     1   ar
    36    22    13   ar
    37    10     4   ar
    38    21    16   ar
    39    28    23   ar
    40     6    11    1
    41     6    12    1
@<TRIPOS>MOLECULE
*****
 36 41 0 0 0
SMALL
GASTEIGER

@<TRIPOS>ATOM
      1 C          71.6371   73.4453   13.8442 C.ar    1  UNL1        0.1239
      2 N          71.5442   74.6100   12.9036 N.ar    1  UNL1       -0.2305
      3 C          72.1455   75.8041   13.5836 C.ar    1  UNL1        0.1014
      4 C          72.6100   75.3774   14.9445 C.ar    1  UNL1        0.1141
      5 C          73.2786   76.1281   16.0579 C.ar    1  UNL1        0.1432
      6 N          73.5927   77.5859   15.8968 N.pl3   1  UNL1       -0.3414
      7 N          73.6329   75.4209   17.3324 N.ar    1  UNL1       -0.2265
      8 C          73.3187   73.9630   17.4935 C.ar    1  UNL1        0.1193
      9 C          72.6501   73.2124   16.3801 C.ar    1  UNL1        0.1020
     10 N          72.2958   73.9196   15.1057 N.ar    1  UNL1       -0.2885
     11 H          73.3602   78.0501   15.0603 H       1  UNL1        0.1438
     12 H          74.0315   78.0786   16.6275 H       1  UNL1        0.1438
     13 C          72.2618   77.1829   13.0044 C.ar    1  UNL1        0.0207
     14 C          72.2711   78.3786   13.9101 C.ar    1  UNL1        0.0016
     15 C          72.3874   79.7573   13.3308 C.ar    1  UNL1        0.0015
     16 C          72.4946   79.9404   11.8459 C.ar    1  UNL1        0.0177
     17 C          72.6109   81.3192   11.2667 C.ar    1  UNL1        0.0030
     18 C          72.7181   81.5023    9.7818 C.ar    1  UNL1        0.0191
     19 C          72.7088   80.3065    8.8761 C.ar    1  UNL1        0.0812
     20 N          72.5925   78.9278    9.4553 N.ar    1  UNL1       -0.2454
     21 C          72.4853   78.7447   10.9402 C.ar    1  UNL1        0.0813
     22 C          72.3690   77.3660   11.5194 C.ar    1  UNL1        0.0206
     23 C          72.8160   80.4896    7.3911 C.ar    1  UNL1        0.0176
     24 C          73.5248   79.4631    6.5581 C.ar    1  UNL1        0.0015
     25 C          73.6319   79.6462    5.0732 C.ar    1  UNL1        0.0000
     26 C          73.0302   80.8558    4.4213 C.ar    1  UNL1        0.0000
     27 C          72.3215   81.8823    5.2543 C.ar    1  UNL1        0.0000
     28 C          72.2144   81.6992    6.7393 C.ar    1  UNL1        0.0015
     29 C          70.4751   70.0793   13.1855 C.3     1  UNL1        0.0168
     30 C          70.4684   70.9894   14.3779 C.3     1  UNL1        0.0089
     31 C          71.1557   72.0510   13.5714 C.3     1  UNL1        0.0573
     32 C          71.1624   71.1410   12.3790 C.3     1  UNL1        0.0089
     33 C          69.9937   68.6851   12.9127 C.3     1  UNL1        0.0722
     34 C          67.7788   69.3698   11.7401 C.3     1  UNL1        0.0897
     35 N          68.9525   68.4436   11.8604 N.3     1  UNL1       -0.2703
     36 C          69.0848   67.2757   10.9282 C.3     1  UNL1        0.0897
@<TRIPOS>BOND
     1    34    35    1
     2    35    36    1
     3    35    33    1
     4    29    33    1
     5    29    30    1
     6    30    31    1
     7    31     1    1
     8     1     2   ar
     9     2     3   ar
    10     3    13    1
    11    13    14   ar
    12    14    15   ar
    13    15    16   ar
    14    16    17   ar
    15    17    18   ar
    16    18    19   ar
    17    19    23    1
    18    23    24   ar
    19    24    25   ar
    20    25    26   ar
    21    26    27   ar
    22    27    28   ar
    23    19    20   ar
    24    20    21   ar
    25    21    22   ar
    26     3     4   ar
    27     4     5   ar
    28     5     6    1
    29     5     7   ar
    30     7     8   ar
    31     8     9   ar
    32     9    10   ar
    33    31    32    1
    34    32    29    1
    35    10     1   ar
    36    22    13   ar
    37    10     4   ar
    38    21    16   ar
    39    28    23   ar
    40     6    11    1
    41     6    12    1
@<TRIPOS>MOLECULE
*****
 36 41 0 0 0
SMALL
GASTEIGER

@<TRIPOS>ATOM
      1 C          63.6868   86.1765   13.8030 C.ar    1  UNL1        0.1239
      2 N          64.3431   87.4363   13.3214 N.ar    1  UNL1       -0.2305
      3 C          64.2608   88.4519   14.4223 C.ar    1  UNL1        0.1014
      4 C          63.5536   87.8197   15.5843 C.ar    1  UNL1        0.1141
      5 C          63.1868   88.3428   16.9414 C.ar    1  UNL1        0.1432
      6 N          63.5416   89.7491   17.3241 N.pl3   1  UNL1       -0.3414
      7 N          62.4653   87.4597   17.9158 N.ar    1  UNL1       -0.2265
      8 C          62.1106   86.0534   17.5332 C.ar    1  UNL1        0.1193
      9 C          62.4773   85.5303   16.1760 C.ar    1  UNL1        0.1020
     10 N          63.1988   86.4134   15.2016 N.ar    1  UNL1       -0.2885
     11 H          64.0152   90.3287   16.6845 H       1  UNL1        0.1438
     12 H          63.3009   90.0925   18.2148 H       1  UNL1        0.1438
     13 C          64.7923   89.8536   14.3703 C.ar    1  UNL1        0.0207
     14 C          65.2352   90.5350   15.6311 C.ar    1  UNL1        0.0016
     15 C          65.7667   91.9367   15.5790 C.ar    1  UNL1        0.0015
     16 C          65.8554   92.6570   14.2663 C.ar    1  UNL1        0.0177
     17 C          66.3869   94.0587   14.2143 C.ar    1  UNL1        0.0030
     18 C          66.4756   94.7790   12.9015 C.ar    1  UNL1        0.0191
     19 C          66.0327   94.0975   11.6408 C.ar    1  UNL1        0.0812
     20 N          65.5012   92.6959   11.6928 N.ar    1  UNL1       -0.2454
     21 C          65.4125   91.9756   13.0055 C.ar    1  UNL1        0.0813
     22 C          64.8810   90.5739   13.0575 C.ar    1  UNL1        0.0206
     23 C          66.1213   94.8178   10.3280 C.ar    1  UNL1        0.0176
     24 C          65.3124   96.0599   10.0979 C.ar    1  UNL1        0.0015
     25 C          65.4010   96.7802    8.7851 C.ar    1  UNL1        0.0000
     26 C          66.2986   96.2584    7.7025 C.ar    1  UNL1        0.0000
     27 C          67.1075   95.0164    7.9326 C.ar    1  UNL1        0.0000
     28 C          67.0189   94.2961    9.2454 C.ar    1  UNL1        0.0015
     29 C          63.3409   83.1026   11.9200 C.3     1  UNL1        0.0168
     30 C          64.3183   83.6220   12.9324 C.3     1  UNL1        0.0089
     31 C          63.5435   84.9032   13.0231 C.3     1  UNL1        0.0573
     32 C          62.5661   84.3838   12.0107 C.3     1  UNL1        0.0089
     33 C          63.1977   81.8293   11.1401 C.3     1  UNL1        0.0722
     34 C          62.3937   80.5992   13.2825 C.3     1  UNL1        0.0897
     35 N          62.7931   80.5643   11.8371 N.3     1  UNL1       -0.2703
     36 C          62.7878   79.2642   11.0887 C.3     1  UNL1        0.0897
@<TRIPOS>BOND
     1    34    35    1
     2    35    36    1
     3    35    33    1
     4    29    33    1
     5    29    30    1
     6    30    31    1
     7    31     1    1
     8     1     2   ar
     9     2     3   ar
    10     3    13    1
    11    13    14   ar
    12    14    15   ar
    13    15    16   ar
    14    16    17   ar
    15    17    18   ar
    16    18    19   ar
    17    19    23    1
    18    23    24   ar
    19    24    25   ar
    20    25    26   ar
    21    26    27   ar
    22    27    28   ar
    23    19    20   ar
    24    20    21   ar
    25    21    22   ar
    26     3     4   ar
    27     4     5   ar
    28     5     6    1
    29     5     7   ar
    30     7     8   ar
    31     8     9   ar
    32     9    10   ar
    33    31    32    1
    34    32    29    1
    35    10     1   ar
    36    22    13   ar
    37    10     4   ar
    38    21    16   ar
    39    28    23   ar
    40     6    11    1
    41     6    12    1
@<TRIPOS>MOLECULE
*****
 36 41 0 0 0
SMALL
GASTEIGER

@<TRIPOS>ATOM
      1 C          64.8471   90.1508   13.8501 C.ar    1  UNL1        0.1239
      2 N          64.7871   88.8346   14.5671 N.ar    1  UNL1       -0.2305
      3 C          63.8394   87.9430   13.8209 C.ar    1  UNL1        0.1014
      4 C          63.3136   88.7082   12.6427 C.ar    1  UNL1        0.1141
      5 C          62.3483   88.3387   11.5557 C.ar    1  UNL1        0.1432
      6 N          61.7255   86.9742   11.5377 N.pl3   1  UNL1       -0.3414
      7 N          62.0057   89.3337   10.4868 N.ar    1  UNL1       -0.2265
      8 C          62.6284   90.6981   10.5048 C.ar    1  UNL1        0.1193
      9 C          63.5939   91.0676   11.5918 C.ar    1  UNL1        0.1020
     10 N          63.9364   90.0727   12.6607 N.ar    1  UNL1       -0.2885
     11 H          61.9504   86.3212   12.2393 H       1  UNL1        0.1438
     12 H          61.0919   86.7317   10.8243 H       1  UNL1        0.1438
     13 C          63.4804   86.5337   14.1884 C.ar    1  UNL1        0.0207
     14 C          63.1165   86.1972   15.6041 C.ar    1  UNL1        0.0016
     15 C          62.7575   84.7880   15.9715 C.ar    1  UNL1        0.0015
     16 C          62.7625   83.7151   14.9232 C.ar    1  UNL1        0.0177
     17 C          62.4035   82.3058   15.2906 C.ar    1  UNL1        0.0030
     18 C          62.4084   81.2330   14.2423 C.ar    1  UNL1        0.0191
     19 C          62.7723   81.5695   12.8265 C.ar    1  UNL1        0.0812
     20 N          63.1313   82.9788   12.4591 N.ar    1  UNL1       -0.2454
     21 C          63.1263   84.0516   13.5074 C.ar    1  UNL1        0.0813
     22 C          63.4853   85.4609   13.1400 C.ar    1  UNL1        0.0206
     23 C          62.7772   80.4967   11.7781 C.ar    1  UNL1        0.0176
     24 C          63.0147   80.8537   10.3407 C.ar    1  UNL1        0.0015
     25 C          63.0196   79.7809    9.2923 C.ar    1  UNL1        0.0000
     26 C          62.7870   78.3510    9.6814 C.ar    1  UNL1        0.0000
     27 C          62.5495   77.9940   11.1188 C.ar    1  UNL1        0.0000
     28 C          62.5446   79.0668   12.1672 C.ar    1  UNL1        0.0015
     29 C          66.8405   93.0143   14.8202 C.3     1  UNL1        0.0168
     30 C          65.7052   92.2537   15.4387 C.3     1  UNL1        0.0089
     31 C          65.6728   91.3369   14.2519 C.3     1  UNL1        0.0573
     32 C          66.8081   92.0975   13.6334 C.3     1  UNL1        0.0089
     33 C          67.6661   94.2004   15.2220 C.3     1  UNL1        0.0722
     34 C          69.4269   92.6181   16.2923 C.3     1  UNL1        0.0897
     35 N          68.9861   93.9985   15.9052 N.3     1  UNL1       -0.2703
     36 C          69.8654   95.1773   16.2015 C.3     1  UNL1        0.0897
@<TRIPOS>BOND
     1    34    35    1
     2    35    36    1
     3    35    33    1
     4    29    33    1
     5    29    30    1
     6    30    31    1
     7    31     1    1
     8     1     2   ar
     9     2     3   ar
    10     3    13    1
    11    13    14   ar
    12    14    15   ar
    13    15    16   ar
    14    16    17   ar
    15    17    18   ar
    16    18    19   ar
    17    19    23    1
    18    23    24   ar
    19    24    25   ar
    20    25    26   ar
    21    26    27   ar
    22    27    28   ar
    23    19    20   ar
    24    20    21   ar
    25    21    22   ar
    26     3     4   ar
    27     4     5   ar
    28     5     6    1
    29     5     7   ar
    30     7     8   ar
    31     8     9   ar
    32     9    10   ar
    33    31    32    1
    34    32    29    1
    35    10     1   ar
    36    22    13   ar
    37    10     4   ar
    38    21    16   ar
    39    28    23   ar
    40     6    11    1
    41     6    12    1
