@<TRIPOS>MOLECULE
*****
 30 33 0 0 0
SMALL
GASTEIGER

@<TRIPOS>ATOM
      1 C          64.2548   90.9969   15.3465 C.2     1  UNL1        0.1078
      2 N          63.4512   91.5166   16.5016 N.2     1  UNL1       -0.1481
      3 N          62.8508   90.3413   17.2144 N.2     1  UNL1       -0.1516
      4 C          63.2832   89.0953   16.5000 C.2     1  UNL1        0.0979
      5 C          62.9989   87.6442   16.7515 C.3     1  UNL1        0.1651
      6 C          63.5824   86.5982   15.8485 C.2     1  UNL1        0.3110
      7 N          64.4502   87.0034   14.6940 N.2     1  UNL1       -0.0399
      8 C          64.7345   88.4545   14.4425 C.2     1  UNL1        0.2380
      9 C          64.1510   89.5005   15.3455 C.2     1  UNL1        0.0820
     10 C          65.1214   92.5454   10.4627 C.3     1  UNL1        0.0521
     11 C          65.4601   92.6020   11.9229 C.ar    1  UNL1        0.0594
     12 C          64.6881   91.7712   12.9046 C.ar    1  UNL1        0.0163
     13 C          65.0268   91.8278   14.3647 C.ar    1  UNL1        0.0223
     14 C          66.1375   92.7153   14.8432 C.ar    1  UNL1        0.0222
     15 C          66.9094   93.5461   13.8614 C.ar    1  UNL1        0.0985
     16 N          66.5707   93.4895   12.4013 N.ar    1  UNL1       -0.2481
     17 N          63.2982   85.1470   16.1000 N.am    1  UNL1       -0.1565
     18 C          62.8416   84.2662   14.9749 C.2     1  UNL1        0.3925
     19 O          62.6693   84.8367   13.5983 O.2     1  UNL1       -0.2238
     20 N          62.5573   82.8151   15.2263 N.am    1  UNL1       -0.2666
     21 H          63.4113   84.7725   17.0034 H       1  UNL1        0.3027
     22 H          62.6704   82.4406   16.1298 H       1  UNL1        0.1533
     23 C          62.1008   81.9343   14.1012 C.3     1  UNL1        0.0977
     24 C          60.9318   81.0146   14.2956 C.3     1  UNL1        0.0263
     25 C          62.8131   81.9733   12.7817 C.ar    1  UNL1       -0.0044
     26 C          63.9157   82.9644   12.5536 C.ar    1  UNL1       -0.0027
     27 C          64.6280   83.0034   11.2341 C.ar    1  UNL1       -0.0003
     28 C          64.2377   82.0513   10.1427 C.ar    1  UNL1       -0.0000
     29 C          63.1352   81.0602   10.3708 C.ar    1  UNL1       -0.0003
     30 C          62.4228   81.0212   11.6903 C.ar    1  UNL1       -0.0027
@<TRIPOS>BOND
     1    10    11    1
     2    11    12   ar
     3    12    13   ar
     4    13     1    1
     5     1     2    2
     6     2     3    1
     7     3     4    2
     8     4     5    1
     9     5     6    1
    10     6    17    1
    11    17    18   am
    12    18    19    2
    13    18    20   am
    14    20    23    1
    15    23    24    1
    16    23    25    1
    17    25    26   ar
    18    26    27   ar
    19    27    28   ar
    20    28    29   ar
    21    29    30   ar
    22     6     7    2
    23     7     8    1
    24     8     9    2
    25    13    14   ar
    26    14    15   ar
    27    15    16   ar
    28    16    11   ar
    29     9     1    1
    30     9     4    1
    31    30    25   ar
    32    17    21    1
    33    20    22    1
@<TRIPOS>MOLECULE
*****
 30 33 0 0 0
SMALL
GASTEIGER

@<TRIPOS>ATOM
      1 C          65.6937   93.2090   12.4626 C.2     1  UNL1        0.1078
      2 N          65.9751   93.1123   13.9328 N.2     1  UNL1       -0.1481
      3 N          65.2740   91.8955   14.4598 N.2     1  UNL1       -0.1516
      4 C          64.5593   91.2401   13.3154 C.2     1  UNL1        0.0979
      5 C          63.7059   90.0090   13.2378 C.3     1  UNL1        0.1651
      6 C          63.1118   89.5897   11.9258 C.2     1  UNL1        0.3110
      7 N          63.3713   90.4015   10.6915 N.2     1  UNL1       -0.0399
      8 C          64.2247   91.6326   10.7691 C.2     1  UNL1        0.2380
      9 C          64.8187   92.0519   12.0810 C.2     1  UNL1        0.0820
     10 C          67.9573   94.5848    7.9924 C.3     1  UNL1        0.0521
     11 C          67.3304   94.9635    9.3015 C.ar    1  UNL1        0.0594
     12 C          66.8255   93.8969   10.2275 C.ar    1  UNL1        0.0163
     13 C          66.1986   94.2755   11.5366 C.ar    1  UNL1        0.0223
     14 C          66.0767   95.7207   11.9196 C.ar    1  UNL1        0.0222
     15 C          66.5816   96.7872   10.9935 C.ar    1  UNL1        0.0985
     16 N          67.2085   96.4086    9.6845 N.ar    1  UNL1       -0.2481
     17 N          62.2584   88.3586   11.8482 N.am    1  UNL1       -0.1565
     18 C          62.7229   87.0826   12.4854 C.2     1  UNL1        0.3925
     19 O          64.0409   87.0377   13.2002 O.2     1  UNL1       -0.2238
     20 N          61.8695   85.8515   12.4078 N.am    1  UNL1       -0.2666
     21 H          61.3933   88.3881   11.3790 H       1  UNL1        0.3027
     22 H          61.0045   85.8810   11.9386 H       1  UNL1        0.1533
     23 C          62.3340   84.5755   13.0450 C.3     1  UNL1        0.0977
     24 C          62.3657   84.4518   14.5396 C.3     1  UNL1        0.0263
     25 C          62.7668   83.4233   12.1877 C.ar    1  UNL1       -0.0044
     26 C          62.3711   82.0241   12.5561 C.ar    1  UNL1       -0.0027
     27 C          62.8038   80.8719   11.6988 C.ar    1  UNL1       -0.0003
     28 C          63.6324   81.1187   10.4730 C.ar    1  UNL1       -0.0000
     29 C          64.0281   82.5179   10.1045 C.ar    1  UNL1       -0.0003
     30 C          63.5953   83.6702   10.9619 C.ar    1  UNL1       -0.0027
@<TRIPOS>BOND
     1    10    11    1
     2    11    12   ar
     3    12    13   ar
     4    13     1    1
     5     1     2    2
     6     2     3    1
     7     3     4    2
     8     4     5    1
     9     5     6    1
    10     6    17    1
    11    17    18   am
    12    18    19    2
    13    18    20   am
    14    20    23    1
    15    23    24    1
    16    23    25    1
    17    25    26   ar
    18    26    27   ar
    19    27    28   ar
    20    28    29   ar
    21    29    30   ar
    22     6     7    2
    23     7     8    1
    24     8     9    2
    25    13    14   ar
    26    14    15   ar
    27    15    16   ar
    28    16    11   ar
    29     9     1    1
    30     9     4    1
    31    30    25   ar
    32    17    21    1
    33    20    22    1
@<TRIPOS>MOLECULE
*****
 30 33 0 0 0
SMALL
GASTEIGER

@<TRIPOS>ATOM
      1 C          62.9711   84.9523   15.8135 C.2     1  UNL1        0.1078
      2 N          62.4023   84.8368   17.1967 N.2     1  UNL1       -0.1481
      3 N          62.3901   86.2063   17.8086 N.2     1  UNL1       -0.1516
      4 C          62.9512   87.1681   16.8036 C.2     1  UNL1        0.0979
      5 C          63.1816   88.6495   16.8519 C.3     1  UNL1        0.1651
      6 C          63.7710   89.3559   15.6672 C.2     1  UNL1        0.3110
      7 N          64.1301   88.5809   14.4342 N.2     1  UNL1       -0.0399
      8 C          63.8998   87.0995   14.3858 C.2     1  UNL1        0.2380
      9 C          63.3103   86.3931   15.5705 C.2     1  UNL1        0.0820
     10 C          61.4015   80.4278   13.7974 C.3     1  UNL1        0.0521
     11 C          62.3816   81.5626   13.8354 C.ar    1  UNL1        0.0594
     12 C          62.1863   82.6900   14.8054 C.ar    1  UNL1        0.0163
     13 C          63.1663   83.8249   14.8435 C.ar    1  UNL1        0.0223
     14 C          64.3418   83.8324   13.9116 C.ar    1  UNL1        0.0222
     15 C          64.5370   82.7050   12.9416 C.ar    1  UNL1        0.0985
     16 N          63.5570   81.5701   12.9035 N.ar    1  UNL1       -0.2481
     17 N          64.0014   90.8373   15.7156 N.am    1  UNL1       -0.1565
     18 C          65.2061   91.4312   15.0476 C.2     1  UNL1        0.3925
     19 O          66.1803   90.5435   14.3313 O.2     1  UNL1       -0.2238
     20 N          65.4365   92.9125   15.0959 N.am    1  UNL1       -0.2666
     21 H          63.3620   91.4199   16.1857 H       1  UNL1        0.3027
     22 H          64.7971   93.4951   15.5660 H       1  UNL1        0.1533
     23 C          66.6411   93.5064   14.4279 C.3     1  UNL1        0.0977
     24 C          67.8509   93.8610   15.2408 C.3     1  UNL1        0.0263
     25 C          66.6361   93.7455   12.9471 C.ar    1  UNL1       -0.0044
     26 C          66.3293   95.1117   12.4090 C.ar    1  UNL1       -0.0027
     27 C          66.3243   95.3508   10.9283 C.ar    1  UNL1       -0.0003
     28 C          66.6259   94.2238    9.9855 C.ar    1  UNL1       -0.0000
     29 C          66.9326   92.8577   10.5235 C.ar    1  UNL1       -0.0003
     30 C          66.9377   92.6185   12.0043 C.ar    1  UNL1       -0.0027
@<TRIPOS>BOND
     1    10    11    1
     2    11    12   ar
     3    12    13   ar
     4    13     1    1
     5     1     2    2
     6     2     3    1
     7     3     4    2
     8     4     5    1
     9     5     6    1
    10     6    17    1
    11    17    18   am
    12    18    19    2
    13    18    20   am
    14    20    23    1
    15    23    24    1
    16    23    25    1
    17    25    26   ar
    18    26    27   ar
    19    27    28   ar
    20    28    29   ar
    21    29    30   ar
    22     6     7    2
    23     7     8    1
    24     8     9    2
    25    13    14   ar
    26    14    15   ar
    27    15    16   ar
    28    16    11   ar
    29     9     1    1
    30     9     4    1
    31    30    25   ar
    32    17    21    1
    33    20    22    1
@<TRIPOS>MOLECULE
*****
 30 33 0 0 0
SMALL
GASTEIGER

@<TRIPOS>ATOM
      1 C          63.8086   84.9032   14.1153 C.2     1  UNL1        0.1078
      2 N          64.4848   85.0587   15.4452 N.2     1  UNL1       -0.1481
      3 N          64.7151   86.5222   15.6796 N.2     1  UNL1       -0.1516
      4 C          64.1813   87.2712   14.4947 C.2     1  UNL1        0.0979
      5 C          64.1331   88.7351   14.1712 C.3     1  UNL1        0.1651
      6 C          63.5245   89.1983   12.8809 C.2     1  UNL1        0.3110
      7 N          62.9642   88.1977   11.9140 N.2     1  UNL1       -0.0399
      8 C          63.0125   86.7338   12.2375 C.2     1  UNL1        0.2380
      9 C          63.6210   86.2706   13.5279 C.2     1  UNL1        0.0820
     10 C          60.8114   80.6585   14.1068 C.3     1  UNL1        0.0521
     11 C          61.8943   81.4854   13.4794 C.ar    1  UNL1        0.0594
     12 C          62.3100   82.7808   14.1110 C.ar    1  UNL1        0.0163
     13 C          63.3929   83.6077   13.4837 C.ar    1  UNL1        0.0223
     14 C          64.0601   83.1390   12.2245 C.ar    1  UNL1        0.0222
     15 C          63.6444   81.8436   11.5929 C.ar    1  UNL1        0.0985
     16 N          62.5615   81.0167   12.2203 N.ar    1  UNL1       -0.2481
     17 N          63.4763   90.6623   12.5573 N.am    1  UNL1       -0.1565
     18 C          64.7230   91.4915   12.6463 C.2     1  UNL1        0.3925
     19 O          66.0181   90.8568   13.0587 O.2     1  UNL1       -0.2238
     20 N          64.6748   92.9554   12.3227 N.am    1  UNL1       -0.2666
     21 H          62.6263   91.0788   12.2866 H       1  UNL1        0.3027
     22 H          63.8249   93.3719   12.0520 H       1  UNL1        0.1533
     23 C          65.9216   93.7846   12.4117 C.3     1  UNL1        0.0977
     24 C          66.6057   93.9710   13.7336 C.3     1  UNL1        0.0263
     25 C          66.4843   94.4275   11.1788 C.ar    1  UNL1       -0.0044
     26 C          66.3890   95.9135   10.9976 C.ar    1  UNL1       -0.0027
     27 C          66.9517   96.5563    9.7647 C.ar    1  UNL1       -0.0003
     28 C          67.6097   95.7133    8.7129 C.ar    1  UNL1       -0.0000
     29 C          67.7050   94.2273    8.8941 C.ar    1  UNL1       -0.0003
     30 C          67.1423   93.5844   10.1270 C.ar    1  UNL1       -0.0027
@<TRIPOS>BOND
     1    10    11    1
     2    11    12   ar
     3    12    13   ar
     4    13     1    1
     5     1     2    2
     6     2     3    1
     7     3     4    2
     8     4     5    1
     9     5     6    1
    10     6    17    1
    11    17    18   am
    12    18    19    2
    13    18    20   am
    14    20    23    1
    15    23    24    1
    16    23    25    1
    17    25    26   ar
    18    26    27   ar
    19    27    28   ar
    20    28    29   ar
    21    29    30   ar
    22     6     7    2
    23     7     8    1
    24     8     9    2
    25    13    14   ar
    26    14    15   ar
    27    15    16   ar
    28    16    11   ar
    29     9     1    1
    30     9     4    1
    31    30    25   ar
    32    17    21    1
    33    20    22    1
@<TRIPOS>MOLECULE
*****
 30 33 0 0 0
SMALL
GASTEIGER

@<TRIPOS>ATOM
      1 C          62.5613   85.0906   11.6987 C.2     1  UNL1        0.1078
      2 N          61.9302   84.8940   10.3522 N.2     1  UNL1       -0.1481
      3 N          61.7700   86.2420    9.7141 N.2     1  UNL1       -0.1516
      4 C          62.3022   87.2718   10.6662 C.2     1  UNL1        0.0979
      5 C          62.4047   88.7654   10.5747 C.3     1  UNL1        0.1651
      6 C          62.9962   89.5475   11.7098 C.2     1  UNL1        0.3110
      7 N          63.4852   88.8359   12.9364 N.2     1  UNL1       -0.0399
      8 C          63.3828   87.3422   13.0278 C.2     1  UNL1        0.2380
      9 C          62.7913   86.5601   11.8927 C.2     1  UNL1        0.0820
     10 C          62.4081   80.0949   13.1198 C.3     1  UNL1        0.0521
     11 C          62.8261   81.5100   13.3896 C.ar    1  UNL1        0.0594
     12 C          62.4847   82.5928   12.4093 C.ar    1  UNL1        0.0163
     13 C          62.9027   84.0078   12.6790 C.ar    1  UNL1        0.0223
     14 C          63.6621   84.3402   13.9293 C.ar    1  UNL1        0.0222
     15 C          64.0034   83.2574   14.9096 C.ar    1  UNL1        0.0985
     16 N          63.5854   81.8423   14.6398 N.ar    1  UNL1       -0.2481
     17 N          63.0986   91.0412   11.6184 N.am    1  UNL1       -0.1565
     18 C          64.4264   91.7145   11.8019 C.2     1  UNL1        0.3925
     19 O          65.6517   90.8941   12.0769 O.2     1  UNL1       -0.2238
     20 N          64.5289   93.2082   11.7105 N.am    1  UNL1       -0.2666
     21 H          62.2944   91.5797   11.4379 H       1  UNL1        0.3027
     22 H          63.7247   93.7467   11.5300 H       1  UNL1        0.1533
     23 C          65.8567   93.8815   11.8941 C.3     1  UNL1        0.0977
     24 C          66.5527   93.8179   13.2214 C.3     1  UNL1        0.0263
     25 C          66.4884   94.6183   10.7505 C.ar    1  UNL1       -0.0044
     26 C          67.1110   93.8552    9.6190 C.ar    1  UNL1       -0.0027
     27 C          67.7428   94.5921    8.4754 C.ar    1  UNL1       -0.0003
     28 C          67.7520   96.0920    8.4632 C.ar    1  UNL1       -0.0000
     29 C          67.1295   96.8551    9.5946 C.ar    1  UNL1       -0.0003
     30 C          66.4977   96.1182   10.7383 C.ar    1  UNL1       -0.0027
@<TRIPOS>BOND
     1    10    11    1
     2    11    12   ar
     3    12    13   ar
     4    13     1    1
     5     1     2    2
     6     2     3    1
     7     3     4    2
     8     4     5    1
     9     5     6    1
    10     6    17    1
    11    17    18   am
    12    18    19    2
    13    18    20   am
    14    20    23    1
    15    23    24    1
    16    23    25    1
    17    25    26   ar
    18    26    27   ar
    19    27    28   ar
    20    28    29   ar
    21    29    30   ar
    22     6     7    2
    23     7     8    1
    24     8     9    2
    25    13    14   ar
    26    14    15   ar
    27    15    16   ar
    28    16    11   ar
    29     9     1    1
    30     9     4    1
    31    30    25   ar
    32    17    21    1
    33    20    22    1
@<TRIPOS>MOLECULE
*****
 30 33 0 0 0
SMALL
GASTEIGER

@<TRIPOS>ATOM
      1 C          66.4398   92.7875   12.5528 C.2     1  UNL1        0.1078
      2 N          66.8620   93.6074   11.3698 N.2     1  UNL1       -0.1481
      3 N          65.8390   93.4220   10.2885 N.2     1  UNL1       -0.1516
      4 C          64.7846   92.4875   10.8032 C.2     1  UNL1        0.0979
      5 C          63.5343   91.9430   10.1785 C.3     1  UNL1        0.1651
      6 C          62.6554   91.0063   10.9531 C.2     1  UNL1        0.3110
      7 N          63.0267   90.6142   12.3525 N.2     1  UNL1       -0.0399
      8 C          64.2770   91.1587   12.9773 C.2     1  UNL1        0.2380
      9 C          65.1559   92.0953   12.2027 C.2     1  UNL1        0.0820
     10 C          69.2364   94.9865   16.3400 C.3     1  UNL1        0.0521
     11 C          68.5711   93.7783   15.7506 C.ar    1  UNL1        0.0594
     12 C          67.8381   93.8870   14.4464 C.ar    1  UNL1        0.0163
     13 C          67.1728   92.6788   13.8570 C.ar    1  UNL1        0.0223
     14 C          67.2404   91.3617   14.5718 C.ar    1  UNL1        0.0222
     15 C          67.9734   91.2530   15.8760 C.ar    1  UNL1        0.0985
     16 N          68.6387   92.4613   16.4654 N.ar    1  UNL1       -0.2481
     17 N          61.4051   90.4618   10.3284 N.am    1  UNL1       -0.1565
     18 C          61.3849   89.0628    9.7875 C.2     1  UNL1        0.3925
     19 O          62.6150   88.2084    9.8714 O.2     1  UNL1       -0.2238
     20 N          60.1347   88.5182    9.1627 N.am    1  UNL1       -0.2666
     21 H          60.5978   91.0225   10.2733 H       1  UNL1        0.3027
     22 H          59.3274   89.0790    9.1077 H       1  UNL1        0.1533
     23 C          60.1145   87.1193    8.6219 C.3     1  UNL1        0.0977
     24 C          59.0231   86.6931    7.6851 C.3     1  UNL1        0.0263
     25 C          61.1855   86.1466    9.0177 C.ar    1  UNL1       -0.0044
     26 C          61.3232   85.7246   10.4506 C.ar    1  UNL1       -0.0027
     27 C          62.3942   84.7520   10.8464 C.ar    1  UNL1       -0.0003
     28 C          63.3276   84.2012    9.8094 C.ar    1  UNL1       -0.0000
     29 C          63.1900   84.6231    8.3766 C.ar    1  UNL1       -0.0003
     30 C          62.1189   85.5959    7.9807 C.ar    1  UNL1       -0.0027
@<TRIPOS>BOND
     1    10    11    1
     2    11    12   ar
     3    12    13   ar
     4    13     1    1
     5     1     2    2
     6     2     3    1
     7     3     4    2
     8     4     5    1
     9     5     6    1
    10     6    17    1
    11    17    18   am
    12    18    19    2
    13    18    20   am
    14    20    23    1
    15    23    24    1
    16    23    25    1
    17    25    26   ar
    18    26    27   ar
    19    27    28   ar
    20    28    29   ar
    21    29    30   ar
    22     6     7    2
    23     7     8    1
    24     8     9    2
    25    13    14   ar
    26    14    15   ar
    27    15    16   ar
    28    16    11   ar
    29     9     1    1
    30     9     4    1
    31    30    25   ar
    32    17    21    1
    33    20    22    1
@<TRIPOS>MOLECULE
*****
 30 33 0 0 0
SMALL
GASTEIGER

@<TRIPOS>ATOM
      1 C          62.3823   86.0793   11.8979 C.2     1  UNL1        0.1078
      2 N          61.5787   86.4808   10.6966 N.2     1  UNL1       -0.1481
      3 N          61.7242   87.9628   10.5159 N.2     1  UNL1       -0.1516
      4 C          62.6176   88.4772   11.6055 C.2     1  UNL1        0.0979
      5 C          63.1133   89.8551   11.9302 C.3     1  UNL1        0.1651
      6 C          64.0157   90.0690   13.1091 C.2     1  UNL1        0.3110
      7 N          64.4224   88.9050   13.9632 N.2     1  UNL1       -0.0399
      8 C          63.9267   87.5271   13.6385 C.2     1  UNL1        0.2380
      9 C          63.0243   87.3131   12.4596 C.2     1  UNL1        0.0820
     10 C          63.0738   80.9892   11.1156 C.3     1  UNL1        0.0521
     11 C          62.8654   82.1432   12.0509 C.ar    1  UNL1        0.0594
     12 C          62.7281   83.5343   11.5068 C.ar    1  UNL1        0.0163
     13 C          62.5197   84.6883   12.4420 C.ar    1  UNL1        0.0223
     14 C          62.4486   84.4512   13.9216 C.ar    1  UNL1        0.0222
     15 C          62.5860   83.0601   14.4657 C.ar    1  UNL1        0.0985
     16 N          62.7944   81.9061   13.5304 N.ar    1  UNL1       -0.2481
     17 N          64.5114   91.4471   13.4339 N.am    1  UNL1       -0.1565
     18 C          65.0938   92.3087   12.3529 C.2     1  UNL1        0.3925
     19 O          65.1804   91.7924   10.9472 O.2     1  UNL1       -0.2238
     20 N          65.5895   93.6867   12.6776 N.am    1  UNL1       -0.2666
     21 H          64.4546   91.7859   14.3565 H       1  UNL1        0.3027
     22 H          65.5327   94.0255   13.6002 H       1  UNL1        0.1533
     23 C          66.1719   94.5483   11.5967 C.3     1  UNL1        0.0977
     24 C          65.8972   96.0229   11.5834 C.3     1  UNL1        0.0263
     25 C          67.0288   93.9354   10.5291 C.ar    1  UNL1       -0.0044
     26 C          67.7939   92.6766   10.8121 C.ar    1  UNL1       -0.0027
     27 C          68.6509   92.0637    9.7445 C.ar    1  UNL1       -0.0003
     28 C          68.7429   92.7096    8.3938 C.ar    1  UNL1       -0.0000
     29 C          67.9778   93.9684    8.1107 C.ar    1  UNL1       -0.0003
     30 C          67.1208   94.5813    9.1784 C.ar    1  UNL1       -0.0027
@<TRIPOS>BOND
     1    10    11    1
     2    11    12   ar
     3    12    13   ar
     4    13     1    1
     5     1     2    2
     6     2     3    1
     7     3     4    2
     8     4     5    1
     9     5     6    1
    10     6    17    1
    11    17    18   am
    12    18    19    2
    13    18    20   am
    14    20    23    1
    15    23    24    1
    16    23    25    1
    17    25    26   ar
    18    26    27   ar
    19    27    28   ar
    20    28    29   ar
    21    29    30   ar
    22     6     7    2
    23     7     8    1
    24     8     9    2
    25    13    14   ar
    26    14    15   ar
    27    15    16   ar
    28    16    11   ar
    29     9     1    1
    30     9     4    1
    31    30    25   ar
    32    17    21    1
    33    20    22    1
@<TRIPOS>MOLECULE
*****
 30 33 0 0 0
SMALL
GASTEIGER

@<TRIPOS>ATOM
      1 C          63.6449   84.5100   14.2043 C.2     1  UNL1        0.1078
      2 N          64.3125   84.7068   15.5330 N.2     1  UNL1       -0.1481
      3 N          64.5846   86.1722   15.7025 N.2     1  UNL1       -0.1516
      4 C          64.0852   86.8810   14.4785 C.2     1  UNL1        0.0979
      5 C          64.0842   88.3291   14.0875 C.3     1  UNL1        0.1651
      6 C          63.5025   88.7500   12.7705 C.2     1  UNL1        0.3110
      7 N          62.9217   87.7227   11.8446 N.2     1  UNL1       -0.0399
      8 C          62.9227   86.2746   12.2356 C.2     1  UNL1        0.2380
      9 C          63.5044   85.8537   13.5525 C.2     1  UNL1        0.0820
     10 C          60.4065   80.4468   14.2505 C.3     1  UNL1        0.0521
     11 C          61.5774   81.1679   13.6514 C.ar    1  UNL1        0.0594
     12 C          62.0257   82.4784   14.2273 C.ar    1  UNL1        0.0163
     13 C          63.1965   83.1996   13.6283 C.ar    1  UNL1        0.0223
     14 C          63.9191   82.6103   12.4532 C.ar    1  UNL1        0.0222
     15 C          63.4707   81.2999   11.8772 C.ar    1  UNL1        0.0985
     16 N          62.2998   80.5787   12.4763 N.ar    1  UNL1       -0.2481
     17 N          63.5015   90.1981   12.3795 N.am    1  UNL1       -0.1565
     18 C          64.6779   91.0663   12.7147 C.2     1  UNL1        0.3925
     19 O          65.8553   90.4863   13.4410 O.2     1  UNL1       -0.2238
     20 N          64.6770   92.5144   12.3237 N.am    1  UNL1       -0.2666
     21 H          62.7287   90.5788   11.9028 H       1  UNL1        0.3027
     22 H          63.9042   92.8951   11.8470 H       1  UNL1        0.1533
     23 C          65.8534   93.3826   12.6589 C.3     1  UNL1        0.0977
     24 C          66.1610   94.5861   11.8181 C.3     1  UNL1        0.0263
     25 C          66.7221   93.0472   13.8348 C.ar    1  UNL1       -0.0044
     26 C          66.1673   93.1329   15.2258 C.ar    1  UNL1       -0.0027
     27 C          67.0360   92.7976   16.4017 C.ar    1  UNL1       -0.0003
     28 C          68.4595   92.3765   16.1867 C.ar    1  UNL1       -0.0000
     29 C          69.0143   92.2907   14.7958 C.ar    1  UNL1       -0.0003
     30 C          68.1456   92.6261   13.6198 C.ar    1  UNL1       -0.0027
@<TRIPOS>BOND
     1    10    11    1
     2    11    12   ar
     3    12    13   ar
     4    13     1    1
     5     1     2    2
     6     2     3    1
     7     3     4    2
     8     4     5    1
     9     5     6    1
    10     6    17    1
    11    17    18   am
    12    18    19    2
    13    18    20   am
    14    20    23    1
    15    23    24    1
    16    23    25    1
    17    25    26   ar
    18    26    27   ar
    19    27    28   ar
    20    28    29   ar
    21    29    30   ar
    22     6     7    2
    23     7     8    1
    24     8     9    2
    25    13    14   ar
    26    14    15   ar
    27    15    16   ar
    28    16    11   ar
    29     9     1    1
    30     9     4    1
    31    30    25   ar
    32    17    21    1
    33    20    22    1
@<TRIPOS>MOLECULE
*****
 30 33 0 0 0
SMALL
GASTEIGER

@<TRIPOS>ATOM
      1 C          60.8244   93.1608    2.6812 C.2     1  UNL1        0.1078
      2 N          62.2746   92.7774    2.6832 N.2     1  UNL1       -0.1481
      3 N          62.4543   91.6492    3.6553 N.2     1  UNL1       -0.1516
      4 C          61.1153   91.3354    4.2540 C.2     1  UNL1        0.0979
      5 C          60.6831   90.3197    5.2696 C.3     1  UNL1        0.1651
      6 C          59.2436   90.2382    5.6832 C.2     1  UNL1        0.3110
      7 N          58.2362   91.1723    5.0811 N.2     1  UNL1       -0.0399
      8 C          58.6684   92.1881    4.0655 C.2     1  UNL1        0.2380
      9 C          60.1079   92.2696    3.6520 C.2     1  UNL1        0.0820
     10 C          57.8809   94.6190   -1.3449 C.3     1  UNL1        0.0521
     11 C          58.7285   94.9742   -0.1594 C.ar    1  UNL1        0.0594
     12 C          59.3527   93.8899    0.6682 C.ar    1  UNL1        0.0163
     13 C          60.2003   94.2450    1.8536 C.ar    1  UNL1        0.0223
     14 C          60.4238   95.6845    2.2115 C.ar    1  UNL1        0.0222
     15 C          59.7996   96.7688    1.3840 C.ar    1  UNL1        0.0985
     16 N          58.9520   96.4136    0.1985 N.ar    1  UNL1       -0.2481
     17 N          58.8114   89.2224    6.6988 N.am    1  UNL1       -0.1565
     18 C          59.6651   88.9556    7.9030 C.2     1  UNL1        0.3925
     19 O          60.9511   89.7045    8.0915 O.2     1  UNL1       -0.2238
     20 N          59.2329   87.9399    8.9186 N.am    1  UNL1       -0.2666
     21 H          57.9674   88.7309    6.5751 H       1  UNL1        0.3027
     22 H          58.3889   87.4483    8.7949 H       1  UNL1        0.1533
     23 C          60.0866   87.6731   10.1227 C.3     1  UNL1        0.0977
     24 C          59.8762   88.4620   11.3811 C.3     1  UNL1        0.0263
     25 C          61.1508   86.6174   10.0686 C.ar    1  UNL1       -0.0044
     26 C          61.8166   86.2897    8.7649 C.ar    1  UNL1       -0.0027
     27 C          62.8808   85.2340    8.7108 C.ar    1  UNL1       -0.0003
     28 C          63.2792   84.5059    9.9602 C.ar    1  UNL1       -0.0000
     29 C          62.6136   84.8336   11.2639 C.ar    1  UNL1       -0.0003
     30 C          61.5493   85.8893   11.3181 C.ar    1  UNL1       -0.0027
@<TRIPOS>BOND
     1    10    11    1
     2    11    12   ar
     3    12    13   ar
     4    13     1    1
     5     1     2    2
     6     2     3    1
     7     3     4    2
     8     4     5    1
     9     5     6    1
    10     6    17    1
    11    17    18   am
    12    18    19    2
    13    18    20   am
    14    20    23    1
    15    23    24    1
    16    23    25    1
    17    25    26   ar
    18    26    27   ar
    19    27    28   ar
    20    28    29   ar
    21    29    30   ar
    22     6     7    2
    23     7     8    1
    24     8     9    2
    25    13    14   ar
    26    14    15   ar
    27    15    16   ar
    28    16    11   ar
    29     9     1    1
    30     9     4    1
    31    30    25   ar
    32    17    21    1
    33    20    22    1
