@<TRIPOS>MOLECULE
*****
 28 32 0 0 0
SMALL
GASTEIGER

@<TRIPOS>ATOM
      1 S          63.4898   90.0646   14.0725 S.3     1  UNL1       -0.0656
      2 C          63.8741   90.7969   12.8211 C.ar    1  UNL1        0.1936
      3 N          63.1531   90.7360   11.5072 N.ar    1  UNL1       -0.1221
      4 N          63.8803   91.6202   10.5379 N.ar    1  UNL1       -0.1282
      5 C          65.0507   92.2276   11.2528 C.ar    1  UNL1        0.1668
      6 N          65.0469   91.7188   12.6639 N.ar    1  UNL1       -0.2923
      7 C          66.0495   93.1771   10.6606 C.ar    1  UNL1        0.0390
      8 C          67.2465   92.6462    9.9289 C.ar    1  UNL1        0.0237
      9 C          68.2454   93.5956    9.3366 C.ar    1  UNL1        0.0990
     10 N          68.0473   95.0759    9.4760 N.ar    1  UNL1       -0.2423
     11 C          66.8503   95.6068   10.2077 C.ar    1  UNL1        0.0990
     12 C          65.8514   94.6574   10.8000 C.ar    1  UNL1        0.0237
     13 C          66.0413   92.0701   13.7306 C.3     1  UNL1        0.0889
     14 C          66.6655   93.0860   14.6408 C.3     1  UNL1        0.0246
     15 C          67.1394   91.6630   14.6678 C.3     1  UNL1        0.0246
     16 C          64.4281   89.0590   14.6711 C.3     1  UNL1        0.1517
     17 C          63.4082   85.3190   14.4765 C.ar    1  UNL1        0.2497
     18 N          63.1578   85.6127   15.9260 N.ar    1  UNL1       -0.1072
     19 N          63.5094   87.0494   16.1753 N.ar    1  UNL1       -0.1105
     20 C          63.9771   87.6437   14.8799 C.ar    1  UNL1        0.2378
     21 O          63.9145   86.5743   13.8300 O.2     1  UNL1       -0.4186
     22 CL         64.0593   82.2270   10.3515 Cl      1  UNL1       -0.0613
     23 C          63.5160   82.4555   11.7308 C.ar    1  UNL1        0.1385
     24 C          63.7337   83.7730   12.4140 C.ar    1  UNL1        0.0355
     25 C          63.1905   84.0014   13.7933 C.ar    1  UNL1        0.0590
     26 C          62.4295   82.9123   14.4896 C.ar    1  UNL1        0.0254
     27 C          62.2118   81.5948   13.8065 C.ar    1  UNL1        0.1000
     28 N          62.7551   81.3664   12.4271 N.ar    1  UNL1       -0.2324
@<TRIPOS>BOND
     1    22    23    1
     2    23    24   ar
     3    24    25   ar
     4    25    17    1
     5    17    18   ar
     6    18    19   ar
     7    19    20   ar
     8    20    16    1
     9    16     1    1
    10     1     2    1
    11     2     3   ar
    12     3     4   ar
    13     4     5   ar
    14     5     7    1
    15     7     8   ar
    16     8     9   ar
    17     9    10   ar
    18    10    11   ar
    19    11    12   ar
    20     5     6   ar
    21     6    13    1
    22    13    14    1
    23    14    15    1
    24    20    21   ar
    25    25    26   ar
    26    26    27   ar
    27    27    28   ar
    28    28    23   ar
    29    21    17   ar
    30     6     2   ar
    31    15    13    1
    32    12     7   ar
@<TRIPOS>MOLECULE
*****
 28 32 0 0 0
SMALL
GASTEIGER

@<TRIPOS>ATOM
      1 S          63.9971   89.9200   14.5335 S.3     1  UNL1       -0.0656
      2 C          65.0000   90.9254   14.0505 C.ar    1  UNL1        0.1936
      3 N          66.1793   91.4360   14.8240 N.ar    1  UNL1       -0.1221
      4 N          66.9079   92.4229   13.9607 N.ar    1  UNL1       -0.1282
      5 C          66.1789   92.5221   12.6536 C.ar    1  UNL1        0.1668
      6 N          64.9998   91.5967   12.7090 N.ar    1  UNL1       -0.2923
      7 C          66.5618   93.3938   11.4945 C.ar    1  UNL1        0.0390
      8 C          66.2492   94.8606   11.5239 C.ar    1  UNL1        0.0237
      9 C          66.6321   95.7324   10.3648 C.ar    1  UNL1        0.0990
     10 N          67.3277   95.1374    9.1765 N.ar    1  UNL1       -0.2423
     11 C          67.6403   93.6707    9.1471 C.ar    1  UNL1        0.0990
     12 C          67.2574   92.7989   10.3062 C.ar    1  UNL1        0.0237
     13 C          63.9964   91.3803   11.6151 C.3     1  UNL1        0.0889
     14 C          63.5432   91.6109   10.2039 C.3     1  UNL1        0.0246
     15 C          62.7119   90.7752   11.1316 C.3     1  UNL1        0.0246
     16 C          64.4100   88.4949   14.7537 C.3     1  UNL1        0.1517
     17 C          63.1396   85.2205   13.1015 C.ar    1  UNL1        0.2497
     18 N          62.7338   86.2384   12.0771 N.ar    1  UNL1       -0.1072
     19 N          63.1604   87.5888   12.5713 N.ar    1  UNL1       -0.1105
     20 C          63.8297   87.4057   13.9012 C.ar    1  UNL1        0.2378
     21 O          63.8168   85.9419   14.2288 O.2     1  UNL1       -0.4186
     22 CL         63.1644   80.8176   10.3421 Cl      1  UNL1       -0.0613
     23 C          62.9210   81.5396   11.6342 C.ar    1  UNL1        0.1385
     24 C          63.1520   83.0190   11.7218 C.ar    1  UNL1        0.0355
     25 C          62.9086   83.7409   13.0140 C.ar    1  UNL1        0.0590
     26 C          62.4342   82.9834   14.2185 C.ar    1  UNL1        0.0254
     27 C          62.2032   81.5039   14.1309 C.ar    1  UNL1        0.1000
     28 N          62.4466   80.7820   12.8388 N.ar    1  UNL1       -0.2324
@<TRIPOS>BOND
     1    22    23    1
     2    23    24   ar
     3    24    25   ar
     4    25    17    1
     5    17    18   ar
     6    18    19   ar
     7    19    20   ar
     8    20    16    1
     9    16     1    1
    10     1     2    1
    11     2     3   ar
    12     3     4   ar
    13     4     5   ar
    14     5     7    1
    15     7     8   ar
    16     8     9   ar
    17     9    10   ar
    18    10    11   ar
    19    11    12   ar
    20     5     6   ar
    21     6    13    1
    22    13    14    1
    23    14    15    1
    24    20    21   ar
    25    25    26   ar
    26    26    27   ar
    27    27    28   ar
    28    28    23   ar
    29    21    17   ar
    30     6     2   ar
    31    15    13    1
    32    12     7   ar
@<TRIPOS>MOLECULE
*****
 28 32 0 0 0
SMALL
GASTEIGER

@<TRIPOS>ATOM
      1 S          63.9696   89.9407   14.5105 S.3     1  UNL1       -0.0656
      2 C          64.9816   90.9370   14.0278 C.ar    1  UNL1        0.1936
      3 N          66.1681   91.4332   14.7999 N.ar    1  UNL1       -0.1221
      4 N          66.9047   92.4150   13.9375 N.ar    1  UNL1       -0.1282
      5 C          66.1734   92.5256   12.6325 C.ar    1  UNL1        0.1668
      6 N          64.9849   91.6121   12.6883 N.ar    1  UNL1       -0.2923
      7 C          66.5624   93.3966   11.4750 C.ar    1  UNL1        0.0390
      8 C          67.2780   92.8037   10.2975 C.ar    1  UNL1        0.0237
      9 C          67.6671   93.6747    9.1400 C.ar    1  UNL1        0.0990
     10 N          67.3405   95.1386    9.1598 N.ar    1  UNL1       -0.2423
     11 C          66.6249   95.7315   10.3373 C.ar    1  UNL1        0.0990
     12 C          66.2358   94.8605   11.4948 C.ar    1  UNL1        0.0237
     13 C          63.9767   91.4093   11.5964 C.3     1  UNL1        0.0889
     14 C          62.6517   90.8798   11.1338 C.3     1  UNL1        0.0246
     15 C          63.5552   91.5874   10.1679 C.3     1  UNL1        0.0246
     16 C          64.3253   88.4853   14.5829 C.3     1  UNL1        0.1517
     17 C          62.5917   86.5858   11.6756 C.ar    1  UNL1        0.2497
     18 N          62.9367   85.4534   12.5967 N.ar    1  UNL1       -0.1072
     19 N          63.6281   86.0270   13.7979 N.ar    1  UNL1       -0.1105
     20 C          63.7104   87.5141   13.6192 C.ar    1  UNL1        0.2378
     21 O          63.0699   87.8594   12.3075 O.2     1  UNL1       -0.4186
     22 CL         62.4274   84.7407    6.8209 Cl      1  UNL1       -0.0613
     23 C          61.8093   85.5432    7.9272 C.ar    1  UNL1        0.1385
     24 C          62.5095   85.6633    9.2482 C.ar    1  UNL1        0.0355
     25 C          61.8914   86.4658   10.3545 C.ar    1  UNL1        0.0590
     26 C          60.5731   87.1484   10.1397 C.ar    1  UNL1        0.0254
     27 C          59.8729   87.0283    8.8186 C.ar    1  UNL1        0.1000
     28 N          60.4910   86.2258    7.7124 N.ar    1  UNL1       -0.2324
@<TRIPOS>BOND
     1    22    23    1
     2    23    24   ar
     3    24    25   ar
     4    25    17    1
     5    17    18   ar
     6    18    19   ar
     7    19    20   ar
     8    20    16    1
     9    16     1    1
    10     1     2    1
    11     2     3   ar
    12     3     4   ar
    13     4     5   ar
    14     5     7    1
    15     7     8   ar
    16     8     9   ar
    17     9    10   ar
    18    10    11   ar
    19    11    12   ar
    20     5     6   ar
    21     6    13    1
    22    13    14    1
    23    14    15    1
    24    20    21   ar
    25    25    26   ar
    26    26    27   ar
    27    27    28   ar
    28    28    23   ar
    29    21    17   ar
    30     6     2   ar
    31    15    13    1
    32    12     7   ar
@<TRIPOS>MOLECULE
*****
 28 32 0 0 0
SMALL
GASTEIGER

@<TRIPOS>ATOM
      1 S          62.1311   90.0039   11.5722 S.3     1  UNL1       -0.0656
      2 C          63.3501   90.8392   11.8298 C.ar    1  UNL1        0.1936
      3 N          63.9274   91.8663   10.9015 N.ar    1  UNL1       -0.1221
      4 N          65.1399   92.4559   11.5589 N.ar    1  UNL1       -0.1282
      5 C          65.3120   91.7932   12.8935 C.ar    1  UNL1        0.1668
      6 N          64.2059   90.7940   13.0609 N.ar    1  UNL1       -0.2923
      7 C          66.3994   92.0795   13.8863 C.ar    1  UNL1        0.0390
      8 C          67.8371   91.9106   13.4933 C.ar    1  UNL1        0.0237
      9 C          68.9246   92.1968   14.4860 C.ar    1  UNL1        0.0990
     10 N          68.5743   92.6520   15.8717 N.ar    1  UNL1       -0.2423
     11 C          67.1365   92.8208   16.2647 C.ar    1  UNL1        0.0990
     12 C          66.0491   92.5346   15.2719 C.ar    1  UNL1        0.0237
     13 C          63.9928   89.9055   14.2506 C.3     1  UNL1        0.0889
     14 C          63.4402   89.6897   15.6283 C.3     1  UNL1        0.0246
     15 C          64.1763   88.5827   14.9335 C.3     1  UNL1        0.0246
     16 C          62.0926   89.0768   10.3937 C.3     1  UNL1        0.1517
     17 C          62.6010   85.4359   11.6389 C.ar    1  UNL1        0.2497
     18 N          62.3049   85.2067   10.1864 N.ar    1  UNL1       -0.1072
     19 N          62.0784   86.5427    9.5431 N.ar    1  UNL1       -0.1105
     20 C          62.2345   87.5976   10.5981 C.ar    1  UNL1        0.2378
     21 O          62.5575   86.9135   11.8933 O.2     1  UNL1       -0.4186
     22 CL         62.6515   80.4300   13.0315 Cl      1  UNL1       -0.0613
     23 C          62.9151   81.8709   13.3544 C.ar    1  UNL1        0.1385
     24 C          62.6263   82.9329   12.3352 C.ar    1  UNL1        0.0355
     25 C          62.8899   84.3738   12.6581 C.ar    1  UNL1        0.0590
     26 C          63.4425   84.7527   14.0002 C.ar    1  UNL1        0.0254
     27 C          63.7314   83.6908   15.0193 C.ar    1  UNL1        0.1000
     28 N          63.4677   82.2498   14.6964 N.ar    1  UNL1       -0.2324
@<TRIPOS>BOND
     1    22    23    1
     2    23    24   ar
     3    24    25   ar
     4    25    17    1
     5    17    18   ar
     6    18    19   ar
     7    19    20   ar
     8    20    16    1
     9    16     1    1
    10     1     2    1
    11     2     3   ar
    12     3     4   ar
    13     4     5   ar
    14     5     7    1
    15     7     8   ar
    16     8     9   ar
    17     9    10   ar
    18    10    11   ar
    19    11    12   ar
    20     5     6   ar
    21     6    13    1
    22    13    14    1
    23    14    15    1
    24    20    21   ar
    25    25    26   ar
    26    26    27   ar
    27    27    28   ar
    28    28    23   ar
    29    21    17   ar
    30     6     2   ar
    31    15    13    1
    32    12     7   ar
@<TRIPOS>MOLECULE
*****
 28 32 0 0 0
SMALL
GASTEIGER

@<TRIPOS>ATOM
      1 S          62.2956   88.8878   11.3121 S.3     1  UNL1       -0.0656
      2 C          62.7033   87.5590   11.8762 C.ar    1  UNL1        0.1936
      3 N          63.3426   87.3274   13.2132 N.ar    1  UNL1       -0.1221
      4 N          63.5776   85.8538   13.3657 N.ar    1  UNL1       -0.1282
      5 C          63.0835   85.1746   12.1228 C.ar    1  UNL1        0.1668
      6 N          62.5432   86.2285   11.2023 N.ar    1  UNL1       -0.2923
      7 C          63.1229   83.7005   11.8487 C.ar    1  UNL1        0.0390
      8 C          62.4912   82.7412   12.8134 C.ar    1  UNL1        0.0237
      9 C          62.5305   81.2669   12.5394 C.ar    1  UNL1        0.0990
     10 N          63.2017   80.7520   11.3007 N.ar    1  UNL1       -0.2423
     11 C          63.8334   81.7113   10.3360 C.ar    1  UNL1        0.0990
     12 C          63.7941   83.1855   10.6100 C.ar    1  UNL1        0.0237
     13 C          61.9473   85.9933    9.8460 C.3     1  UNL1        0.0889
     14 C          62.1067   85.5971    8.4081 C.3     1  UNL1        0.0246
     15 C          60.7560   85.9820    8.9346 C.3     1  UNL1        0.0246
     16 C          62.2571   90.0983   12.1971 C.3     1  UNL1        0.1517
     17 C          65.3294   92.4064   11.6506 C.ar    1  UNL1        0.2497
     18 N          65.2296   92.4063   13.1473 N.ar    1  UNL1       -0.1072
     19 N          64.0666   91.5417   13.5342 N.ar    1  UNL1       -0.1105
     20 C          63.4476   91.0074   12.2766 C.ar    1  UNL1        0.2378
     21 O          64.2281   91.5419   11.1125 O.2     1  UNL1       -0.4186
     22 CL         67.1769   96.8541    9.6998 Cl      1  UNL1       -0.0613
     23 C          67.2749   95.3658    9.8598 C.ar    1  UNL1        0.1385
     24 C          66.2532   94.6303   10.6752 C.ar    1  UNL1        0.0355
     25 C          66.3512   93.1420   10.8351 C.ar    1  UNL1        0.0590
     26 C          67.4710   92.3894   10.1797 C.ar    1  UNL1        0.0254
     27 C          68.4927   93.1250    9.3643 C.ar    1  UNL1        0.1000
     28 N          68.3947   94.6132    9.2043 N.ar    1  UNL1       -0.2324
@<TRIPOS>BOND
     1    22    23    1
     2    23    24   ar
     3    24    25   ar
     4    25    17    1
     5    17    18   ar
     6    18    19   ar
     7    19    20   ar
     8    20    16    1
     9    16     1    1
    10     1     2    1
    11     2     3   ar
    12     3     4   ar
    13     4     5   ar
    14     5     7    1
    15     7     8   ar
    16     8     9   ar
    17     9    10   ar
    18    10    11   ar
    19    11    12   ar
    20     5     6   ar
    21     6    13    1
    22    13    14    1
    23    14    15    1
    24    20    21   ar
    25    25    26   ar
    26    26    27   ar
    27    27    28   ar
    28    28    23   ar
    29    21    17   ar
    30     6     2   ar
    31    15    13    1
    32    12     7   ar
@<TRIPOS>MOLECULE
*****
 28 32 0 0 0
SMALL
GASTEIGER

@<TRIPOS>ATOM
      1 S          62.0414   90.0863   12.1249 S.3     1  UNL1       -0.0656
      2 C          63.0942   90.2867   13.1744 C.ar    1  UNL1        0.1936
      3 N          63.1085   89.6641   14.5390 N.ar    1  UNL1       -0.1221
      4 N          64.3407   90.1375   15.2516 N.ar    1  UNL1       -0.1282
      5 C          65.0879   91.0527   14.3274 C.ar    1  UNL1        0.1668
      6 N          64.3175   91.1449   13.0436 N.ar    1  UNL1       -0.2923
      7 C          66.3787   91.7527   14.6333 C.ar    1  UNL1        0.0390
      8 C          67.5788   91.5273   13.7620 C.ar    1  UNL1        0.0237
      9 C          68.8697   92.2273   14.0678 C.ar    1  UNL1        0.0990
     10 N          68.9606   93.1526   15.2449 N.ar    1  UNL1       -0.2423
     11 C          67.7605   93.3779   16.1162 C.ar    1  UNL1        0.0990
     12 C          66.4696   92.6780   15.8103 C.ar    1  UNL1        0.0237
     13 C          64.7028   91.9533   11.8402 C.3     1  UNL1        0.0889
     14 C          65.4150   93.1282   11.2383 C.3     1  UNL1        0.0246
     15 C          64.6578   92.1786   10.3580 C.3     1  UNL1        0.0246
     16 C          62.3433   89.2638   10.9073 C.3     1  UNL1        0.1517
     17 C          62.5372   85.4927   11.8054 C.ar    1  UNL1        0.2497
     18 N          61.9833   85.4309   10.4129 N.ar    1  UNL1       -0.1072
     19 N          61.8432   86.8360    9.9069 N.ar    1  UNL1       -0.1105
     20 C          62.3106   87.7663   10.9868 C.ar    1  UNL1        0.2378
     21 O          62.7395   86.9361   12.1602 O.2     1  UNL1       -0.4186
     22 CL         62.6861   80.3538   12.5602 Cl      1  UNL1       -0.0613
     23 C          62.9109   81.7481   13.0657 C.ar    1  UNL1        0.1385
     24 C          62.6117   82.9233   12.1829 C.ar    1  UNL1        0.0355
     25 C          62.8364   84.3175   12.6884 C.ar    1  UNL1        0.0590
     26 C          63.3603   84.5366   14.0767 C.ar    1  UNL1        0.0254
     27 C          63.6595   83.3615   14.9595 C.ar    1  UNL1        0.1000
     28 N          63.4348   81.9672   14.4540 N.ar    1  UNL1       -0.2324
@<TRIPOS>BOND
     1    22    23    1
     2    23    24   ar
     3    24    25   ar
     4    25    17    1
     5    17    18   ar
     6    18    19   ar
     7    19    20   ar
     8    20    16    1
     9    16     1    1
    10     1     2    1
    11     2     3   ar
    12     3     4   ar
    13     4     5   ar
    14     5     7    1
    15     7     8   ar
    16     8     9   ar
    17     9    10   ar
    18    10    11   ar
    19    11    12   ar
    20     5     6   ar
    21     6    13    1
    22    13    14    1
    23    14    15    1
    24    20    21   ar
    25    25    26   ar
    26    26    27   ar
    27    27    28   ar
    28    28    23   ar
    29    21    17   ar
    30     6     2   ar
    31    15    13    1
    32    12     7   ar
@<TRIPOS>MOLECULE
*****
 28 32 0 0 0
SMALL
GASTEIGER

@<TRIPOS>ATOM
      1 S          63.8300   88.4608   13.7020 S.3     1  UNL1       -0.0656
      2 C          63.1296   88.5416   12.3780 C.ar    1  UNL1        0.1936
      3 N          62.8157   89.7985   11.6220 N.ar    1  UNL1       -0.1221
      4 N          62.1123   89.4134   10.3543 N.ar    1  UNL1       -0.1282
      5 C          61.9915   87.9186   10.3269 C.ar    1  UNL1        0.1668
      6 N          62.6202   87.3797   11.5776 N.ar    1  UNL1       -0.2923
      7 C          61.3539   87.1054    9.2397 C.ar    1  UNL1        0.0390
      8 C          59.9047   87.3033    8.9069 C.ar    1  UNL1        0.0237
      9 C          59.2670   86.4901    7.8197 C.ar    1  UNL1        0.0990
     10 N          60.0785   85.4791    7.0652 N.ar    1  UNL1       -0.2423
     11 C          61.5276   85.2812    7.3980 C.ar    1  UNL1        0.0990
     12 C          62.1653   86.0943    8.4852 C.ar    1  UNL1        0.0237
     13 C          62.7218   85.9331   11.9608 C.3     1  UNL1        0.0889
     14 C          63.0850   84.8769   12.9621 C.3     1  UNL1        0.0246
     15 C          62.5347   84.4836   11.6233 C.3     1  UNL1        0.0246
     16 C          63.8543   89.6532   14.6116 C.3     1  UNL1        0.1517
     17 C          65.8358   92.5276   12.9152 C.ar    1  UNL1        0.2497
     18 N          65.8231   92.9875   14.3429 N.ar    1  UNL1       -0.1072
     19 N          65.0793   91.9668   15.1521 N.ar    1  UNL1       -0.1105
     20 C          64.6323   90.8759   14.2246 C.ar    1  UNL1        0.2378
     21 O          65.0998   91.2225   12.8421 O.2     1  UNL1       -0.4186
     22 CL         68.7564   92.4424    8.6184 Cl      1  UNL1       -0.0613
     23 C          67.9329   93.2038    9.6145 C.ar    1  UNL1        0.1385
     24 C          67.2961   92.4850   10.7668 C.ar    1  UNL1        0.0355
     25 C          66.4726   93.2464   11.7629 C.ar    1  UNL1        0.0590
     26 C          66.2859   94.7265   11.6067 C.ar    1  UNL1        0.0254
     27 C          66.9227   95.4452   10.4544 C.ar    1  UNL1        0.1000
     28 N          67.7462   94.6839    9.4583 N.ar    1  UNL1       -0.2324
@<TRIPOS>BOND
     1    22    23    1
     2    23    24   ar
     3    24    25   ar
     4    25    17    1
     5    17    18   ar
     6    18    19   ar
     7    19    20   ar
     8    20    16    1
     9    16     1    1
    10     1     2    1
    11     2     3   ar
    12     3     4   ar
    13     4     5   ar
    14     5     7    1
    15     7     8   ar
    16     8     9   ar
    17     9    10   ar
    18    10    11   ar
    19    11    12   ar
    20     5     6   ar
    21     6    13    1
    22    13    14    1
    23    14    15    1
    24    20    21   ar
    25    25    26   ar
    26    26    27   ar
    27    27    28   ar
    28    28    23   ar
    29    21    17   ar
    30     6     2   ar
    31    15    13    1
    32    12     7   ar
@<TRIPOS>MOLECULE
*****
 28 32 0 0 0
SMALL
GASTEIGER

@<TRIPOS>ATOM
      1 S          63.8414   88.3960   13.5596 S.3     1  UNL1       -0.0656
      2 C          63.8987   86.9590   13.9857 C.ar    1  UNL1        0.1936
      3 N          64.5563   86.4329   15.2270 N.ar    1  UNL1       -0.1221
      4 N          64.3726   84.9445   15.2537 N.ar    1  UNL1       -0.1282
      5 C          63.6014   84.5505   14.0290 C.ar    1  UNL1        0.1668
      6 N          63.3085   85.7955   13.2453 N.ar    1  UNL1       -0.2923
      7 C          63.1945   83.1564   13.6538 C.ar    1  UNL1        0.0390
      8 C          62.1657   82.4304   14.4690 C.ar    1  UNL1        0.0237
      9 C          61.7588   81.0363   14.0939 C.ar    1  UNL1        0.0990
     10 N          62.3807   80.3681   12.9037 N.ar    1  UNL1       -0.2423
     11 C          63.4095   81.0941   12.0885 C.ar    1  UNL1        0.0990
     12 C          63.8164   82.4882   12.4635 C.ar    1  UNL1        0.0237
     13 C          62.5573   85.8651   11.9488 C.3     1  UNL1        0.0889
     14 C          62.2673   85.3135   10.5843 C.3     1  UNL1        0.0246
     15 C          61.5464   86.5370   11.0675 C.3     1  UNL1        0.0246
     16 C          63.9969   89.4868   14.5775 C.3     1  UNL1        0.1517
     17 C          65.8283   92.4906   12.9377 C.ar    1  UNL1        0.2497
     18 N          65.7883   92.9240   14.3732 N.ar    1  UNL1       -0.1072
     19 N          65.0974   91.8516   15.1622 N.ar    1  UNL1       -0.1105
     20 C          64.7103   90.7553   14.2143 C.ar    1  UNL1        0.2378
     21 O          65.1620   91.1503   12.8396 O.2     1  UNL1       -0.4186
     22 CL         68.6272   92.6077    8.5614 Cl      1  UNL1       -0.0613
     23 C          67.8284   93.3206    9.6120 C.ar    1  UNL1        0.1385
     24 C          67.2277   92.5492   10.7496 C.ar    1  UNL1        0.0355
     25 C          66.4290   93.2621   11.8001 C.ar    1  UNL1        0.0590
     26 C          66.2309   94.7464   11.7132 C.ar    1  UNL1        0.0254
     27 C          66.8316   95.5177   10.5756 C.ar    1  UNL1        0.1000
     28 N          67.6303   94.8048    9.5250 N.ar    1  UNL1       -0.2324
@<TRIPOS>BOND
     1    22    23    1
     2    23    24   ar
     3    24    25   ar
     4    25    17    1
     5    17    18   ar
     6    18    19   ar
     7    19    20   ar
     8    20    16    1
     9    16     1    1
    10     1     2    1
    11     2     3   ar
    12     3     4   ar
    13     4     5   ar
    14     5     7    1
    15     7     8   ar
    16     8     9   ar
    17     9    10   ar
    18    10    11   ar
    19    11    12   ar
    20     5     6   ar
    21     6    13    1
    22    13    14    1
    23    14    15    1
    24    20    21   ar
    25    25    26   ar
    26    26    27   ar
    27    27    28   ar
    28    28    23   ar
    29    21    17   ar
    30     6     2   ar
    31    15    13    1
    32    12     7   ar
@<TRIPOS>MOLECULE
*****
 28 32 0 0 0
SMALL
GASTEIGER

@<TRIPOS>ATOM
      1 S          64.1384   88.6661   14.1701 S.3     1  UNL1       -0.0656
      2 C          63.5098   87.6635   13.2484 C.ar    1  UNL1        0.1936
      3 N          63.4642   86.1791   13.4592 N.ar    1  UNL1       -0.1221
      4 N          62.7425   85.5675   12.2951 N.ar    1  UNL1       -0.1282
      5 C          62.3422   86.6739   11.3647 C.ar    1  UNL1        0.1668
      6 N          62.8163   87.9693   11.9538 N.ar    1  UNL1       -0.2923
      7 C          61.5982   86.5131   10.0722 C.ar    1  UNL1        0.0390
      8 C          62.2239   85.7604    8.9355 C.ar    1  UNL1        0.0237
      9 C          61.4800   85.5995    7.6429 C.ar    1  UNL1        0.0990
     10 N          60.1106   86.1913    7.4870 N.ar    1  UNL1       -0.2423
     11 C          59.4849   86.9440    8.6237 C.ar    1  UNL1        0.0990
     12 C          60.2288   87.1049    9.9163 C.ar    1  UNL1        0.0237
     13 C          62.6298   89.3314   11.3539 C.3     1  UNL1        0.0889
     14 C          63.0681   90.4007   10.3976 C.3     1  UNL1        0.0246
     15 C          61.8687   90.6213   11.2710 C.3     1  UNL1        0.0246
     16 C          63.6155   90.0712   14.2189 C.3     1  UNL1        0.1517
     17 C          65.8480   92.7602   12.5305 C.ar    1  UNL1        0.2497
     18 N          65.9026   93.1969   13.9644 N.ar    1  UNL1       -0.1072
     19 N          65.0729   92.2428   14.7715 N.ar    1  UNL1       -0.1105
     20 C          64.5056   91.2163   13.8362 C.ar    1  UNL1        0.2378
     21 O          64.9846   91.5361   12.4512 O.2     1  UNL1       -0.4186
     22 CL         68.8761   92.4782    8.3173 Cl      1  UNL1       -0.0613
     23 C          68.0501   93.2889    9.2714 C.ar    1  UNL1        0.1385
     24 C          67.3621   92.6192   10.4238 C.ar    1  UNL1        0.0355
     25 C          66.5360   93.4299   11.3780 C.ar    1  UNL1        0.0590
     26 C          66.3979   94.9103   11.1797 C.ar    1  UNL1        0.0254
     27 C          67.0859   95.5800   10.0272 C.ar    1  UNL1        0.1000
     28 N          67.9120   94.7693    9.0731 N.ar    1  UNL1       -0.2324
@<TRIPOS>BOND
     1    22    23    1
     2    23    24   ar
     3    24    25   ar
     4    25    17    1
     5    17    18   ar
     6    18    19   ar
     7    19    20   ar
     8    20    16    1
     9    16     1    1
    10     1     2    1
    11     2     3   ar
    12     3     4   ar
    13     4     5   ar
    14     5     7    1
    15     7     8   ar
    16     8     9   ar
    17     9    10   ar
    18    10    11   ar
    19    11    12   ar
    20     5     6   ar
    21     6    13    1
    22    13    14    1
    23    14    15    1
    24    20    21   ar
    25    25    26   ar
    26    26    27   ar
    27    27    28   ar
    28    28    23   ar
    29    21    17   ar
    30     6     2   ar
    31    15    13    1
    32    12     7   ar
