@<TRIPOS>MOLECULE
*****
 64 71 0 0 0
SMALL
GASTEIGER

@<TRIPOS>ATOM
      1 N          58.9197   94.2766   -5.7909 N.3     1  UNL1       -0.1862
      2 C          59.9484   94.5105   -6.8573 C.3     1  UNL1        0.1775
      3 C          61.2917   95.0702   -6.4936 C.2     1  UNL1        0.2452
      4 O          62.3204   95.3041   -7.5601 O.2     1  UNL1       -0.2732
      5 N          61.6063   95.3961   -5.0637 N.am    1  UNL1       -0.2541
      6 C          62.9496   95.9558   -4.7001 C.3     1  UNL1        0.1577
      7 C          63.2643   96.2817   -3.2702 C.2     1  UNL1        0.2445
      8 O          64.6076   96.8414   -2.9066 O.2     1  UNL1       -0.2731
      9 N          62.2356   96.0479   -2.2038 N.am    1  UNL1       -0.2705
     10 C          60.8923   95.4881   -2.5674 C.3     1  UNL1        0.1359
     11 C          60.5776   95.1623   -3.9974 C.3     1  UNL1        0.1908
     12 N          59.2343   94.6025   -4.3610 N.am    1  UNL1       -0.1863
     13 C          58.2056   94.3687   -3.2946 C.2     1  UNL1        0.3191
     14 O          58.5203   94.6946   -1.8646 O.2     1  UNL1       -0.2512
     15 N          56.8623   93.8090   -3.6582 N.am    1  UNL1       -0.2836
     16 H          56.6558   93.5951   -4.5967 H       1  UNL1        0.1513
     17 C          57.5764   93.7169   -6.1545 C.3     1  UNL1        0.1188
     18 C          55.1024   94.1843   -6.7954 C.2     1  UNL1       -0.0034
     19 C          56.5439   94.5988   -6.7919 C.2     1  UNL1       -0.0071
     20 C          63.9783   96.1897   -5.7664 C.3     1  UNL1        0.0556
     21 C          64.8641   95.0648   -6.2137 C.ar    1  UNL1       -0.0198
     22 C          64.2904   93.6939   -6.4172 C.ar    1  UNL1       -0.0011
     23 C          65.1761   92.5690   -6.8644 C.ar    1  UNL1        0.0363
     24 C          66.6356   92.8150   -7.1081 C.ar    1  UNL1        0.1337
     25 O          67.5214   91.6901   -7.5553 O.3     1  UNL1       -0.5055
     26 C          67.2094   94.1859   -6.9046 C.ar    1  UNL1        0.0363
     27 C          66.3236   95.3108   -6.4573 C.ar    1  UNL1       -0.0011
     28 H          67.1630   90.8337   -7.6825 H       1  UNL1        0.2922
     29 C          62.5502   96.3738   -0.7738 C.3     1  UNL1        0.1217
     30 C          61.6404   95.9006    0.3210 C.ar    1  UNL1        0.0135
     31 C          60.4828   96.7505    0.7539 C.ar    1  UNL1       -0.0012
     32 C          59.5730   96.2775    1.8486 C.ar    1  UNL1       -0.0002
     33 C          59.8209   94.9544    2.5104 C.ar    1  UNL1        0.0015
     34 C          60.9786   94.1045    2.0775 C.ar    1  UNL1        0.0170
     35 C          61.4692   92.7651    2.5415 C.ar    1  UNL1        0.0186
     36 C          62.6822   92.4104    1.7336 C.ar    1  UNL1        0.0759
     37 N          62.9412   93.5306    0.7702 N.ar    1  UNL1       -0.3242
     38 C          64.0572   93.5929   -0.2301 C.3     1  UNL1        0.1305
     39 C          61.8883   94.5776    0.9828 C.ar    1  UNL1        0.0575
     40 C          60.8547   91.9274    3.6236 C.ar    1  UNL1        0.0016
     41 C          59.5274   92.3118    4.2071 C.ar    1  UNL1        0.0013
     42 C          58.9130   91.4742    5.2891 C.ar    1  UNL1        0.0147
     43 C          59.6258   90.2521    5.7876 C.ar    1  UNL1        0.0516
     44 C          60.9531   89.8677    5.2041 C.ar    1  UNL1        0.0147
     45 C          61.5675   90.7054    4.1221 C.ar    1  UNL1        0.0013
     46 N          59.0113   89.4145    6.8696 N.am    1  UNL1       -0.2680
     47 C          59.8830   88.7753    7.9097 C.2     1  UNL1        0.3093
     48 O          61.3692   88.9738    7.8677 O.2     1  UNL1       -0.2521
     49 N          59.2684   87.9377    8.9917 N.am    1  UNL1       -0.2521
     50 H          58.0359   89.2843    6.8972 H       1  UNL1        0.1564
     51 H          58.2930   87.8075    9.0192 H       1  UNL1        0.1579
     52 C          60.1401   87.2986   10.0317 C.ar    1  UNL1        0.1547
     53 C          60.4440   88.0278   11.3068 C.ar    1  UNL1        0.1333
     54 N          61.3157   87.3886   12.3468 N.ar    1  UNL1       -0.2378
     55 C          61.8836   86.0203   12.1117 C.ar    1  UNL1        0.1196
     56 C          61.5797   85.2911   10.8366 C.ar    1  UNL1        0.1210
     57 N          60.7080   85.9303    9.7966 N.ar    1  UNL1       -0.2257
     58 C          55.8336   93.5751   -2.5919 C.3     1  UNL1        0.1177
     59 C          54.8454   94.6518   -2.2540 C.ar    1  UNL1       -0.0025
     60 C          53.6418   94.8647   -3.1234 C.ar    1  UNL1       -0.0026
     61 C          52.6536   95.9414   -2.7856 C.ar    1  UNL1       -0.0003
     62 C          52.8690   96.8052   -1.5784 C.ar    1  UNL1       -0.0000
     63 C          54.0727   96.5924   -0.7090 C.ar    1  UNL1       -0.0003
     64 C          55.0609   95.5157   -1.0468 C.ar    1  UNL1       -0.0026
@<TRIPOS>BOND
     1    18    19    2
     2    19    17    1
     3    17     1    1
     4     1     2    1
     5     2     3    1
     6     3     4    2
     7     3     5   am
     8     5     6    1
     9     6    20    1
    10    20    21    1
    11    21    22   ar
    12    22    23   ar
    13    23    24   ar
    14    24    25    1
    15    24    26   ar
    16    26    27   ar
    17     6     7    1
    18     7     8    2
    19     7     9   am
    20     9    29    1
    21    29    30    1
    22    30    31   ar
    23    31    32   ar
    24    32    33   ar
    25    33    34   ar
    26    34    35   ar
    27    35    40    1
    28    40    41   ar
    29    41    42   ar
    30    42    43   ar
    31    43    46    1
    32    46    47   am
    33    47    48    2
    34    47    49   am
    35    49    52    1
    36    52    53   ar
    37    53    54   ar
    38    54    55   ar
    39    55    56   ar
    40    56    57   ar
    41    43    44   ar
    42    44    45   ar
    43    35    36   ar
    44    36    37   ar
    45    37    38    1
    46    37    39   ar
    47     9    10    1
    48    11    10    1
    49    11    12    1
    50    12    13   am
    51    13    14    2
    52    13    15   am
    53    15    58    1
    54    58    59    1
    55    59    60   ar
    56    60    61   ar
    57    61    62   ar
    58    62    63   ar
    59    63    64   ar
    60    12     1    1
    61    64    59   ar
    62    11     5    1
    63    27    21   ar
    64    39    30   ar
    65    39    34   ar
    66    45    40   ar
    67    57    52   ar
    68    25    28    1
    69    46    50    1
    70    49    51    1
    71    15    16    1
@<TRIPOS>MOLECULE
*****
 64 71 0 0 0
SMALL
GASTEIGER

@<TRIPOS>ATOM
      1 N          59.7455   94.7694   -4.1267 N.3     1  UNL1       -0.1862
      2 C          61.2142   95.0729   -4.0992 C.3     1  UNL1        0.1775
      3 C          62.0034   94.8465   -2.8439 C.2     1  UNL1        0.2452
      4 O          63.4722   95.1500   -2.8164 O.2     1  UNL1       -0.2732
      5 N          61.3240   94.3165   -1.6161 N.am    1  UNL1       -0.2541
      6 C          62.1133   94.0901   -0.3608 C.3     1  UNL1        0.1577
      7 C          61.4338   93.5602    0.8670 C.2     1  UNL1        0.2445
      8 O          62.2231   93.3337    2.1223 O.2     1  UNL1       -0.2731
      9 N          59.9651   93.2567    0.8395 N.am    1  UNL1       -0.2705
     10 C          59.1758   93.4831   -0.4158 C.3     1  UNL1        0.1359
     11 C          59.8553   94.0131   -1.6437 C.3     1  UNL1        0.1908
     12 N          59.0661   94.2395   -2.8990 N.am    1  UNL1       -0.1863
     13 C          57.5973   93.9360   -2.9264 C.2     1  UNL1        0.3191
     14 O          56.9179   93.4060   -1.6987 O.2     1  UNL1       -0.2512
     15 N          56.8080   94.1624   -4.1818 N.am    1  UNL1       -0.2836
     16 H          57.2540   94.5102   -4.9876 H       1  UNL1        0.1513
     17 C          58.9562   94.9958   -5.3821 C.3     1  UNL1        0.1188
     18 C          57.9124   93.5780   -7.2925 C.2     1  UNL1       -0.0034
     19 C          59.1195   94.0670   -6.5485 C.2     1  UNL1       -0.0071
     20 C          63.5819   94.3936   -0.3333 C.3     1  UNL1        0.0556
     21 C          64.1999   94.9989    0.8922 C.ar    1  UNL1       -0.0198
     22 C          63.6209   96.2496    1.4843 C.ar    1  UNL1       -0.0011
     23 C          64.2389   96.8549    2.7098 C.ar    1  UNL1        0.0363
     24 C          65.4357   96.2096    3.3431 C.ar    1  UNL1        0.1337
     25 O          66.0537   96.8150    4.5685 O.3     1  UNL1       -0.5055
     26 C          66.0147   94.9589    2.7509 C.ar    1  UNL1        0.0363
     27 C          65.3968   94.3536    1.5254 C.ar    1  UNL1       -0.0011
     28 H          65.6920   97.5962    4.9384 H       1  UNL1        0.2922
     29 C          59.2856   92.7267    2.0673 C.3     1  UNL1        0.1217
     30 C          60.0738   91.9639    3.0905 C.ar    1  UNL1        0.0135
     31 C          61.5466   91.7537    2.8988 C.ar    1  UNL1       -0.0012
     32 C          62.3348   90.9909    3.9219 C.ar    1  UNL1       -0.0002
     33 C          61.6502   90.4383    5.1368 C.ar    1  UNL1        0.0015
     34 C          60.1774   90.6486    5.3285 C.ar    1  UNL1        0.0170
     35 C          59.2364   90.2249    6.4171 C.ar    1  UNL1        0.0186
     36 C          57.8667   90.7259    6.0667 C.ar    1  UNL1        0.0759
     37 N          57.9611   91.4591    4.7616 N.ar    1  UNL1       -0.3242
     38 C          56.8266   92.1235    4.0395 C.3     1  UNL1        0.1305
     39 C          59.3892   91.4114    4.3054 C.ar    1  UNL1        0.0575
     40 C          59.6012   89.4384    7.6412 C.ar    1  UNL1        0.0016
     41 C          59.3110   87.9679    7.7019 C.ar    1  UNL1        0.0013
     42 C          59.6758   87.1815    8.9260 C.ar    1  UNL1        0.0147
     43 C          60.3306   87.8654   10.0893 C.ar    1  UNL1        0.0516
     44 C          60.6208   89.3358   10.0287 C.ar    1  UNL1        0.0147
     45 C          60.2560   90.1222    8.8046 C.ar    1  UNL1        0.0013
     46 N          60.6954   87.0788   11.3134 N.am    1  UNL1       -0.2680
     47 C          61.5409   85.8461   11.1885 C.2     1  UNL1        0.3093
     48 O          62.0218   85.4000    9.8396 O.2     1  UNL1       -0.2521
     49 N          61.9056   85.0597   12.4126 N.am    1  UNL1       -0.2521
     50 H          60.3797   87.3716   12.1988 H       1  UNL1        0.1564
     51 H          61.5900   85.3525   13.2980 H       1  UNL1        0.1579
     52 C          62.7512   83.8270   12.2877 C.ar    1  UNL1        0.1547
     53 C          64.1609   83.9322   11.7860 C.ar    1  UNL1        0.1333
     54 N          65.0064   82.6995   11.6610 N.ar    1  UNL1       -0.2378
     55 C          64.4423   81.3616   12.0379 C.ar    1  UNL1        0.1196
     56 C          63.0326   81.2565   12.5396 C.ar    1  UNL1        0.1210
     57 N          62.1871   82.4892   12.6645 N.ar    1  UNL1       -0.2257
     58 C          55.3394   93.8589   -4.2093 C.3     1  UNL1        0.1177
     59 C          54.3630   94.8218   -3.6015 C.ar    1  UNL1       -0.0025
     60 C          54.2823   94.9673   -2.1107 C.ar    1  UNL1       -0.0026
     61 C          53.3059   95.9303   -1.5029 C.ar    1  UNL1       -0.0003
     62 C          52.4103   96.7477   -2.3858 C.ar    1  UNL1       -0.0000
     63 C          52.4909   96.6022   -3.8766 C.ar    1  UNL1       -0.0003
     64 C          53.4673   95.6393   -4.4844 C.ar    1  UNL1       -0.0026
@<TRIPOS>BOND
     1    18    19    2
     2    19    17    1
     3    17     1    1
     4     1     2    1
     5     2     3    1
     6     3     4    2
     7     3     5   am
     8     5     6    1
     9     6    20    1
    10    20    21    1
    11    21    22   ar
    12    22    23   ar
    13    23    24   ar
    14    24    25    1
    15    24    26   ar
    16    26    27   ar
    17     6     7    1
    18     7     8    2
    19     7     9   am
    20     9    29    1
    21    29    30    1
    22    30    31   ar
    23    31    32   ar
    24    32    33   ar
    25    33    34   ar
    26    34    35   ar
    27    35    40    1
    28    40    41   ar
    29    41    42   ar
    30    42    43   ar
    31    43    46    1
    32    46    47   am
    33    47    48    2
    34    47    49   am
    35    49    52    1
    36    52    53   ar
    37    53    54   ar
    38    54    55   ar
    39    55    56   ar
    40    56    57   ar
    41    43    44   ar
    42    44    45   ar
    43    35    36   ar
    44    36    37   ar
    45    37    38    1
    46    37    39   ar
    47     9    10    1
    48    11    10    1
    49    11    12    1
    50    12    13   am
    51    13    14    2
    52    13    15   am
    53    15    58    1
    54    58    59    1
    55    59    60   ar
    56    60    61   ar
    57    61    62   ar
    58    62    63   ar
    59    63    64   ar
    60    12     1    1
    61    64    59   ar
    62    11     5    1
    63    27    21   ar
    64    39    30   ar
    65    39    34   ar
    66    45    40   ar
    67    57    52   ar
    68    25    28    1
    69    46    50    1
    70    49    51    1
    71    15    16    1
@<TRIPOS>MOLECULE
*****
 64 71 0 0 0
SMALL
GASTEIGER

@<TRIPOS>ATOM
      1 N          59.7530   95.8403   -3.7393 N.3     1  UNL1       -0.1862
      2 C          61.1480   96.3712   -3.5913 C.3     1  UNL1        0.1775
      3 C          61.8849   96.1934   -2.2969 C.2     1  UNL1        0.2452
      4 O          63.2800   96.7243   -2.1490 O.2     1  UNL1       -0.2732
      5 N          61.2267   95.4847   -1.1505 N.am    1  UNL1       -0.2541
      6 C          61.9635   95.3068    0.1439 C.3     1  UNL1        0.1577
      7 C          61.3053   94.5981    1.2904 C.2     1  UNL1        0.2445
      8 O          62.0421   94.4203    2.5848 O.2     1  UNL1       -0.2731
      9 N          59.9101   94.0672    1.1425 N.am    1  UNL1       -0.2705
     10 C          59.1733   94.2450   -0.1519 C.3     1  UNL1        0.1359
     11 C          59.8316   94.9538   -1.2984 C.3     1  UNL1        0.1908
     12 N          59.0948   95.1316   -2.5928 N.am    1  UNL1       -0.1863
     13 C          57.6996   94.6007   -2.7407 C.2     1  UNL1        0.3191
     14 O          57.0414   93.8920   -1.5942 O.2     1  UNL1       -0.2512
     15 N          56.9628   94.7786   -4.0351 N.am    1  UNL1       -0.2836
     16 H          57.3948   95.2437   -4.7875 H       1  UNL1        0.1513
     17 C          59.0161   96.0182   -5.0336 C.3     1  UNL1        0.1188
     18 C          58.3088   95.1010   -7.3592 C.2     1  UNL1       -0.0034
     19 C          59.1335   94.9821   -6.1119 C.2     1  UNL1       -0.0071
     20 C          63.3586   95.8377    0.2918 C.3     1  UNL1        0.0556
     21 C          64.0310   95.8163    1.6325 C.ar    1  UNL1       -0.0198
     22 C          65.0445   94.7560    1.9464 C.ar    1  UNL1       -0.0011
     23 C          65.7169   94.7346    3.2870 C.ar    1  UNL1        0.0363
     24 C          65.3758   95.7734    4.3139 C.ar    1  UNL1        0.1337
     25 O          66.0482   95.7520    5.6545 O.3     1  UNL1       -0.5055
     26 C          64.3622   96.8337    4.0000 C.ar    1  UNL1        0.0363
     27 C          63.6898   96.8552    2.6594 C.ar    1  UNL1       -0.0011
     28 H          66.6813   95.0897    5.8506 H       1  UNL1        0.2922
     29 C          59.2519   93.3585    2.2889 C.3     1  UNL1        0.1217
     30 C          60.0394   92.3954    3.1270 C.ar    1  UNL1        0.0135
     31 C          61.5012   92.1903    2.8602 C.ar    1  UNL1       -0.0012
     32 C          62.2887   91.2273    3.6982 C.ar    1  UNL1       -0.0002
     33 C          61.6144   90.4693    4.8030 C.ar    1  UNL1        0.0015
     34 C          60.1527   90.6743    5.0699 C.ar    1  UNL1        0.0170
     35 C          59.2232   90.0730    6.0820 C.ar    1  UNL1        0.0186
     36 C          57.8612   90.6645    5.8696 C.ar    1  UNL1        0.0759
     37 N          57.9490   91.6313    4.7261 N.ar    1  UNL1       -0.3242
     38 C          56.8189   92.4485    4.1738 C.3     1  UNL1        0.1305
     39 C          59.3652   91.6373    4.2319 C.ar    1  UNL1        0.0575
     40 C          59.5911   89.0584    7.1238 C.ar    1  UNL1        0.0016
     41 C          59.1499   87.6328    6.9711 C.ar    1  UNL1        0.0013
     42 C          59.5179   86.6183    8.0129 C.ar    1  UNL1        0.0147
     43 C          60.3269   87.0292    9.2073 C.ar    1  UNL1        0.0516
     44 C          60.7680   88.4547    9.3600 C.ar    1  UNL1        0.0147
     45 C          60.4001   89.4693    8.3182 C.ar    1  UNL1        0.0013
     46 N          60.6948   86.0146   10.2490 N.am    1  UNL1       -0.2680
     47 C          61.8336   86.2825   11.1878 C.2     1  UNL1        0.3093
     48 O          62.6046   87.5650   11.0849 O.2     1  UNL1       -0.2521
     49 N          62.2014   85.2678   12.2295 N.am    1  UNL1       -0.2521
     50 H          60.1887   85.1728   10.3166 H       1  UNL1        0.1564
     51 H          61.6954   84.4260   12.2971 H       1  UNL1        0.1579
     52 C          63.3403   85.5358   13.1682 C.ar    1  UNL1        0.1547
     53 C          63.5193   86.9027   13.7594 C.ar    1  UNL1        0.1333
     54 N          64.6581   87.1707   14.6981 N.ar    1  UNL1       -0.2378
     55 C          65.6180   86.0716   15.0457 C.ar    1  UNL1        0.1196
     56 C          65.4391   84.7047   14.4546 C.ar    1  UNL1        0.1210
     57 N          64.3002   84.4368   13.5158 N.ar    1  UNL1       -0.2257
     58 C          55.5677   94.2477   -4.1830 C.3     1  UNL1        0.1177
     59 C          54.5322   95.0525   -4.9110 C.ar    1  UNL1       -0.0025
     60 C          53.4037   95.6850   -4.1520 C.ar    1  UNL1       -0.0026
     61 C          52.3682   96.4898   -4.8800 C.ar    1  UNL1       -0.0003
     62 C          52.4613   96.6622   -6.3672 C.ar    1  UNL1       -0.0000
     63 C          53.5899   96.0297   -7.1263 C.ar    1  UNL1       -0.0003
     64 C          54.6254   95.2248   -6.3983 C.ar    1  UNL1       -0.0026
@<TRIPOS>BOND
     1    18    19    2
     2    19    17    1
     3    17     1    1
     4     1     2    1
     5     2     3    1
     6     3     4    2
     7     3     5   am
     8     5     6    1
     9     6    20    1
    10    20    21    1
    11    21    22   ar
    12    22    23   ar
    13    23    24   ar
    14    24    25    1
    15    24    26   ar
    16    26    27   ar
    17     6     7    1
    18     7     8    2
    19     7     9   am
    20     9    29    1
    21    29    30    1
    22    30    31   ar
    23    31    32   ar
    24    32    33   ar
    25    33    34   ar
    26    34    35   ar
    27    35    40    1
    28    40    41   ar
    29    41    42   ar
    30    42    43   ar
    31    43    46    1
    32    46    47   am
    33    47    48    2
    34    47    49   am
    35    49    52    1
    36    52    53   ar
    37    53    54   ar
    38    54    55   ar
    39    55    56   ar
    40    56    57   ar
    41    43    44   ar
    42    44    45   ar
    43    35    36   ar
    44    36    37   ar
    45    37    38    1
    46    37    39   ar
    47     9    10    1
    48    11    10    1
    49    11    12    1
    50    12    13   am
    51    13    14    2
    52    13    15   am
    53    15    58    1
    54    58    59    1
    55    59    60   ar
    56    60    61   ar
    57    61    62   ar
    58    62    63   ar
    59    63    64   ar
    60    12     1    1
    61    64    59   ar
    62    11     5    1
    63    27    21   ar
    64    39    30   ar
    65    39    34   ar
    66    45    40   ar
    67    57    52   ar
    68    25    28    1
    69    46    50    1
    70    49    51    1
    71    15    16    1
@<TRIPOS>MOLECULE
*****
 64 71 0 0 0
SMALL
GASTEIGER

@<TRIPOS>ATOM
      1 N          65.6939   89.2682   14.5517 N.3     1  UNL1       -0.1862
      2 C          65.9807   88.0243   15.3393 C.3     1  UNL1        0.1775
      3 C          65.1746   86.7822   15.0996 C.2     1  UNL1        0.2452
      4 O          65.4615   85.5382   15.8873 O.2     1  UNL1       -0.2732
      5 N          64.0817   86.7840   14.0722 N.am    1  UNL1       -0.2541
      6 C          63.2757   85.5419   13.8325 C.3     1  UNL1        0.1577
      7 C          62.1828   85.5437   12.8052 C.2     1  UNL1        0.2445
      8 O          61.3767   84.3016   12.5654 O.2     1  UNL1       -0.2731
      9 N          61.8959   86.7876   12.0174 N.am    1  UNL1       -0.2705
     10 C          62.7019   88.0297   12.2572 C.3     1  UNL1        0.1359
     11 C          63.7949   88.0279   13.2846 C.3     1  UNL1        0.1908
     12 N          64.6010   89.2700   13.5243 N.am    1  UNL1       -0.1863
     13 C          64.3141   90.5139   12.7366 C.2     1  UNL1        0.3191
     14 O          63.2212   90.5157   11.7093 O.2     1  UNL1       -0.2512
     15 N          65.1201   91.7560   12.9763 N.am    1  UNL1       -0.2836
     16 H          65.8374   91.7548   13.6506 H       1  UNL1        0.1513
     17 C          66.4999   90.5103   14.7914 C.3     1  UNL1        0.1188
     18 C          66.8237   92.7641   16.0425 C.2     1  UNL1       -0.0034
     19 C          65.9549   91.6011   15.6649 C.2     1  UNL1       -0.0071
     20 C          63.5625   84.2980   14.6201 C.3     1  UNL1        0.0556
     21 C          63.2891   82.9506   14.0202 C.ar    1  UNL1       -0.0198
     22 C          62.1568   82.1146   14.5386 C.ar    1  UNL1       -0.0011
     23 C          61.8834   80.7673   13.9387 C.ar    1  UNL1        0.0363
     24 C          62.7424   80.2559   12.8204 C.ar    1  UNL1        0.1337
     25 O          62.4690   78.9086   12.2204 O.3     1  UNL1       -0.5055
     26 C          63.8748   81.0920   12.3019 C.ar    1  UNL1        0.0363
     27 C          64.1482   82.4393   12.9019 C.ar    1  UNL1       -0.0011
     28 H          61.7616   78.3864   12.5442 H       1  UNL1        0.2922
     29 C          60.8030   86.7894   10.9901 C.3     1  UNL1        0.1217
     30 C          60.4013   88.0723   10.3246 C.ar    1  UNL1        0.0135
     31 C          60.0600   89.2735   11.1557 C.ar    1  UNL1       -0.0012
     32 C          59.6583   90.5564   10.4903 C.ar    1  UNL1       -0.0002
     33 C          59.5978   90.6381    8.9938 C.ar    1  UNL1        0.0015
     34 C          59.9391   89.4369    8.1627 C.ar    1  UNL1        0.0170
     35 C          59.9691   89.2187    6.6790 C.ar    1  UNL1        0.0186
     36 C          60.3894   87.8009    6.4274 C.ar    1  UNL1        0.0759
     37 N          60.6191   87.1430    7.7556 N.ar    1  UNL1       -0.3242
     38 C          61.0513   85.7232    7.9732 C.3     1  UNL1        0.1305
     39 C          60.3408   88.1540    8.8281 C.ar    1  UNL1        0.0575
     40 C          59.6372   90.2391    5.6308 C.ar    1  UNL1        0.0016
     41 C          58.2111   90.6457    5.4049 C.ar    1  UNL1        0.0013
     42 C          57.8792   91.6660    4.3568 C.ar    1  UNL1        0.0147
     43 C          58.9733   92.2799    3.5345 C.ar    1  UNL1        0.0516
     44 C          60.3994   91.8734    3.7604 C.ar    1  UNL1        0.0147
     45 C          60.7313   90.8530    4.8086 C.ar    1  UNL1        0.0013
     46 N          58.6413   93.3003    2.4864 N.am    1  UNL1       -0.2680
     47 C          59.3605   93.2848    1.1701 C.2     1  UNL1        0.3093
     48 O          60.4116   92.2489    0.9019 O.2     1  UNL1       -0.2521
     49 N          59.0284   94.3053    0.1220 N.am    1  UNL1       -0.2521
     50 H          57.9514   93.9802    2.6624 H       1  UNL1        0.1564
     51 H          58.3385   94.9852    0.2981 H       1  UNL1        0.1579
     52 C          59.7476   94.2897   -1.1942 C.ar    1  UNL1        0.1547
     53 C          59.1153   93.6353   -2.3867 C.ar    1  UNL1        0.1333
     54 N          59.8344   93.6198   -3.7030 N.ar    1  UNL1       -0.2378
     55 C          61.1860   94.2587   -3.8268 C.ar    1  UNL1        0.1196
     56 C          61.8183   94.9131   -2.6343 C.ar    1  UNL1        0.1210
     57 N          61.0991   94.9286   -1.3181 N.ar    1  UNL1       -0.2257
     58 C          64.8333   92.9999   12.1887 C.3     1  UNL1        0.1177
     59 C          65.8486   93.5226   11.2161 C.ar    1  UNL1       -0.0025
     60 C          66.7581   92.5707   10.4973 C.ar    1  UNL1       -0.0026
     61 C          67.7734   93.0934    9.5247 C.ar    1  UNL1       -0.0003
     62 C          67.8792   94.5680    9.2709 C.ar    1  UNL1       -0.0000
     63 C          66.9696   95.5199    9.9897 C.ar    1  UNL1       -0.0003
     64 C          65.9543   94.9972   10.9623 C.ar    1  UNL1       -0.0026
@<TRIPOS>BOND
     1    18    19    2
     2    19    17    1
     3    17     1    1
     4     1     2    1
     5     2     3    1
     6     3     4    2
     7     3     5   am
     8     5     6    1
     9     6    20    1
    10    20    21    1
    11    21    22   ar
    12    22    23   ar
    13    23    24   ar
    14    24    25    1
    15    24    26   ar
    16    26    27   ar
    17     6     7    1
    18     7     8    2
    19     7     9   am
    20     9    29    1
    21    29    30    1
    22    30    31   ar
    23    31    32   ar
    24    32    33   ar
    25    33    34   ar
    26    34    35   ar
    27    35    40    1
    28    40    41   ar
    29    41    42   ar
    30    42    43   ar
    31    43    46    1
    32    46    47   am
    33    47    48    2
    34    47    49   am
    35    49    52    1
    36    52    53   ar
    37    53    54   ar
    38    54    55   ar
    39    55    56   ar
    40    56    57   ar
    41    43    44   ar
    42    44    45   ar
    43    35    36   ar
    44    36    37   ar
    45    37    38    1
    46    37    39   ar
    47     9    10    1
    48    11    10    1
    49    11    12    1
    50    12    13   am
    51    13    14    2
    52    13    15   am
    53    15    58    1
    54    58    59    1
    55    59    60   ar
    56    60    61   ar
    57    61    62   ar
    58    62    63   ar
    59    63    64   ar
    60    12     1    1
    61    64    59   ar
    62    11     5    1
    63    27    21   ar
    64    39    30   ar
    65    39    34   ar
    66    45    40   ar
    67    57    52   ar
    68    25    28    1
    69    46    50    1
    70    49    51    1
    71    15    16    1
@<TRIPOS>MOLECULE
*****
 64 71 0 0 0
SMALL
GASTEIGER

@<TRIPOS>ATOM
      1 N          61.0045   96.3358   -3.8891 N.3     1  UNL1       -0.1862
      2 C          62.3834   96.7904   -3.5123 C.3     1  UNL1        0.1775
      3 C          62.9709   96.3885   -2.1919 C.2     1  UNL1        0.2452
      4 O          64.3498   96.8432   -1.8151 O.2     1  UNL1       -0.2732
      5 N          62.1796   95.5320   -1.2485 N.am    1  UNL1       -0.2541
      6 C          62.7672   95.1301    0.0719 C.3     1  UNL1        0.1577
      7 C          61.9759   94.2736    1.0153 C.2     1  UNL1        0.2445
      8 O          62.5634   93.8717    2.3357 O.2     1  UNL1       -0.2731
      9 N          60.5969   93.8190    0.6385 N.am    1  UNL1       -0.2705
     10 C          60.0094   94.2209   -0.6818 C.3     1  UNL1        0.1359
     11 C          60.8008   95.0774   -1.6253 C.3     1  UNL1        0.1908
     12 N          60.2132   95.4793   -2.9456 N.am    1  UNL1       -0.1863
     13 C          58.8343   95.0246   -3.3225 C.2     1  UNL1        0.3191
     14 O          58.0430   94.1681   -2.3790 O.2     1  UNL1       -0.2512
     15 N          58.2467   95.4265   -4.6428 N.am    1  UNL1       -0.2836
     16 H          58.7661   95.9887   -5.2620 H       1  UNL1        0.1513
     17 C          60.4170   96.7377   -5.2094 C.3     1  UNL1        0.1188
     18 C          60.9411   94.8102   -6.8708 C.2     1  UNL1       -0.0034
     19 C          61.0411   96.2565   -6.4857 C.2     1  UNL1       -0.0071
     20 C          64.1460   95.5848    0.4487 C.3     1  UNL1        0.0556
     21 C          64.5111   95.7543    1.8937 C.ar    1  UNL1       -0.0198
     22 C          65.6686   94.9933    2.4691 C.ar    1  UNL1       -0.0011
     23 C          66.0336   95.1628    3.9141 C.ar    1  UNL1        0.0363
     24 C          65.2412   96.0933    4.7837 C.ar    1  UNL1        0.1337
     25 O          65.6063   96.2628    6.2287 O.3     1  UNL1       -0.5055
     26 C          64.0837   96.8543    4.2083 C.ar    1  UNL1        0.0363
     27 C          63.7186   96.6848    2.7633 C.ar    1  UNL1       -0.0011
     28 H          66.3294   95.7874    6.5881 H       1  UNL1        0.2922
     29 C          59.8056   92.9624    1.5820 C.3     1  UNL1        0.1217
     30 C          60.5090   92.1628    2.6384 C.ar    1  UNL1        0.0135
     31 C          61.9794   91.8912    2.5188 C.ar    1  UNL1       -0.0012
     32 C          62.6827   91.0916    3.5751 C.ar    1  UNL1       -0.0002
     33 C          61.9157   90.5637    4.7511 C.ar    1  UNL1        0.0015
     34 C          60.4454   90.8353    4.8707 C.ar    1  UNL1        0.0170
     35 C          59.4343   90.4475    5.9086 C.ar    1  UNL1        0.0186
     36 C          58.1060   91.0074    5.4937 C.ar    1  UNL1        0.0759
     37 N          58.2962   91.7412    4.1994 N.ar    1  UNL1       -0.3242
     38 C          57.2281   92.4559    3.4259 C.3     1  UNL1        0.1305
     39 C          59.7420   91.6349    3.8144 C.ar    1  UNL1        0.0575
     40 C          59.7041   89.6413    7.1445 C.ar    1  UNL1        0.0016
     41 C          59.0389   88.3099    7.3315 C.ar    1  UNL1        0.0013
     42 C          59.3087   87.5038    8.5673 C.ar    1  UNL1        0.0147
     43 C          60.2437   88.0290    9.6162 C.ar    1  UNL1        0.0516
     44 C          60.9089   89.3604    9.4291 C.ar    1  UNL1        0.0147
     45 C          60.6390   90.1665    8.1933 C.ar    1  UNL1        0.0013
     46 N          60.5135   87.2228   10.8520 N.am    1  UNL1       -0.2680
     47 C          61.4848   86.0806   10.8053 C.2     1  UNL1        0.3093
     48 O          62.1863   85.7447    9.5227 O.2     1  UNL1       -0.2521
     49 N          61.7545   85.2745   12.0411 N.am    1  UNL1       -0.2521
     50 H          60.0530   87.4433   11.6938 H       1  UNL1        0.1564
     51 H          61.2940   85.4950   12.8829 H       1  UNL1        0.1579
     52 C          62.7258   84.1324   11.9944 C.ar    1  UNL1        0.1547
     53 C          63.7573   84.0692   10.9072 C.ar    1  UNL1        0.1333
     54 N          64.7286   82.9270   10.8605 N.ar    1  UNL1       -0.2378
     55 C          64.6683   81.8481   11.9009 C.ar    1  UNL1        0.1196
     56 C          63.6368   81.9114   12.9881 C.ar    1  UNL1        0.1210
     57 N          62.6655   83.0535   13.0347 N.ar    1  UNL1       -0.2257
     58 C          56.8679   94.9719   -5.0197 C.3     1  UNL1        0.1177
     59 C          56.6873   93.7465   -5.8656 C.ar    1  UNL1       -0.0025
     60 C          55.3836   93.5049   -6.5671 C.ar    1  UNL1       -0.0026
     61 C          55.2030   92.2795   -7.4131 C.ar    1  UNL1       -0.0003
     62 C          56.3260   91.2956   -7.5576 C.ar    1  UNL1       -0.0000
     63 C          57.6297   91.5372   -6.8560 C.ar    1  UNL1       -0.0003
     64 C          57.8103   92.7626   -6.0101 C.ar    1  UNL1       -0.0026
@<TRIPOS>BOND
     1    18    19    2
     2    19    17    1
     3    17     1    1
     4     1     2    1
     5     2     3    1
     6     3     4    2
     7     3     5   am
     8     5     6    1
     9     6    20    1
    10    20    21    1
    11    21    22   ar
    12    22    23   ar
    13    23    24   ar
    14    24    25    1
    15    24    26   ar
    16    26    27   ar
    17     6     7    1
    18     7     8    2
    19     7     9   am
    20     9    29    1
    21    29    30    1
    22    30    31   ar
    23    31    32   ar
    24    32    33   ar
    25    33    34   ar
    26    34    35   ar
    27    35    40    1
    28    40    41   ar
    29    41    42   ar
    30    42    43   ar
    31    43    46    1
    32    46    47   am
    33    47    48    2
    34    47    49   am
    35    49    52    1
    36    52    53   ar
    37    53    54   ar
    38    54    55   ar
    39    55    56   ar
    40    56    57   ar
    41    43    44   ar
    42    44    45   ar
    43    35    36   ar
    44    36    37   ar
    45    37    38    1
    46    37    39   ar
    47     9    10    1
    48    11    10    1
    49    11    12    1
    50    12    13   am
    51    13    14    2
    52    13    15   am
    53    15    58    1
    54    58    59    1
    55    59    60   ar
    56    60    61   ar
    57    61    62   ar
    58    62    63   ar
    59    63    64   ar
    60    12     1    1
    61    64    59   ar
    62    11     5    1
    63    27    21   ar
    64    39    30   ar
    65    39    34   ar
    66    45    40   ar
    67    57    52   ar
    68    25    28    1
    69    46    50    1
    70    49    51    1
    71    15    16    1
