@<TRIPOS>MOLECULE
*****
 34 37 0 0 0
SMALL
GASTEIGER

@<TRIPOS>ATOM
      1 C          63.8778   89.3047   14.3918 C.ar    1  UNL1        0.0793
      2 C          63.8664   87.8129   14.2357 C.ar    1  UNL1        0.0442
      3 C          63.5568   87.2092   15.5735 C.ar    1  UNL1        0.1555
      4 N          63.3769   88.3279   16.5565 N.ar    1  UNL1       -0.1646
      5 N          63.5753   89.6230   15.8261 N.ar    1  UNL1       -0.2487
      6 C          63.4867   90.9954   16.4249 C.3     1  UNL1        0.1537
      7 C          66.2306   94.1596   10.9784 C.2     1  UNL1        0.1563
      8 C          66.4137   93.5112   12.3186 C.2     1  UNL1        0.0269
      9 C          65.4547   92.3616   12.4123 C.2     1  UNL1        0.0156
     10 C          65.1877   91.3634   13.4996 C.2     1  UNL1        0.0024
     11 C          64.1449   90.3030   13.3045 C.2     1  UNL1        0.0135
     12 C          63.3691   90.2408   12.0222 C.2     1  UNL1       -0.0183
     13 C          63.6361   91.2391   10.9350 C.3     1  UNL1        0.0718
     14 C          64.6789   92.2995   11.1300 C.2     1  UNL1        0.0636
     15 N          65.1584   93.4107   10.2438 N.2     1  UNL1       -0.2428
     16 C          66.9868   95.3482   10.4633 C.2     1  UNL1        0.3591
     17 O          66.6302   96.7264   10.9358 O.2     1  UNL1       -0.2432
     18 O          68.0997   95.1586    9.4756 O.3     1  UNL1       -0.4444
     19 C          68.9043   92.6927    9.3256 C.3     1  UNL1        0.0513
     20 C          68.2126   93.8732    8.7106 C.3     1  UNL1        0.2089
     21 C          63.4465   85.7440   15.8754 C.2     1  UNL1        0.2656
     22 O          63.9265   85.2115   17.1929 O.2     1  UNL1       -0.2684
     23 N          62.8563   84.8113   14.8596 N.am    1  UNL1       -0.2956
     24 H          62.5413   85.1608   13.9949 H       1  UNL1        0.1501
     25 C          62.7459   83.3462   15.1614 C.3     1  UNL1        0.1166
     26 C          62.7476   82.3476   14.0421 C.ar    1  UNL1       -0.0026
     27 C          62.2302   80.9591   14.2751 C.ar    1  UNL1       -0.0026
     28 C          62.2319   79.9605   13.1558 C.ar    1  UNL1        0.0009
     29 C          62.7509   80.3504   11.8036 C.ar    1  UNL1        0.0140
     30 C          63.2683   81.7390   11.5706 C.ar    1  UNL1        0.0009
     31 C          63.2667   82.7375   12.6899 C.ar    1  UNL1       -0.0026
     32 C          62.7525   79.3517   10.6844 C.2     1  UNL1        0.0729
     33 O          62.7285   77.8833   10.9896 O.co2   1  UNL1       -0.5446
     34 O          62.7782   79.8214    9.2600 O.co2   1  UNL1       -0.5446
@<TRIPOS>UNITY_ATOM_ATTR
33 1
charge -1
@<TRIPOS>BOND
     1    19    20    1
     2    20    18    1
     3    18    16    1
     4    16    17    2
     5    16     7    1
     6     7     8    2
     7     8     9    1
     8     9    10    2
     9    10    11    1
    10    11     1    1
    11     1     2   ar
    12     2     3   ar
    13     3    21    1
    14    21    22    2
    15    21    23   am
    16    23    25    1
    17    25    26    1
    18    26    27   ar
    19    27    28   ar
    20    28    29   ar
    21    29    32    1
    22    32    33   ar
    23    32    34   ar
    24    29    30   ar
    25    30    31   ar
    26     3     4   ar
    27     4     5   ar
    28     5     6    1
    29    11    12    2
    30    12    13    1
    31    13    14    1
    32    14    15    2
    33    15     7    1
    34    14     9    1
    35     5     1   ar
    36    31    26   ar
    37    23    24    1
@<TRIPOS>MOLECULE
*****
 34 37 0 0 0
SMALL
GASTEIGER

@<TRIPOS>ATOM
      1 C          64.4918   90.0001   15.0809 C.ar    1  UNL1        0.0793
      2 C          64.2327   88.5342   14.8966 C.ar    1  UNL1        0.0442
      3 C          63.3411   88.0772   16.0129 C.ar    1  UNL1        0.1555
      4 N          63.0490   89.2607   16.8871 N.ar    1  UNL1       -0.1646
      5 N          63.7602   90.4491   16.3110 N.ar    1  UNL1       -0.2487
      6 C          63.7428   91.8420   16.8674 C.3     1  UNL1        0.1537
      7 C          66.5225   93.7754   10.3501 C.2     1  UNL1        0.1563
      8 C          65.2759   93.0675   10.7913 C.2     1  UNL1        0.0269
      9 C          65.5832   92.3382   12.0655 C.2     1  UNL1        0.0156
     10 C          64.7405   91.4731   12.9552 C.2     1  UNL1        0.0024
     11 C          65.3345   90.8652   14.1912 C.2     1  UNL1        0.0135
     12 C          66.7711   91.1224   14.5375 C.2     1  UNL1       -0.0183
     13 C          67.6138   91.9875   13.6479 C.3     1  UNL1        0.0718
     14 C          67.0198   92.5954   12.4119 C.2     1  UNL1        0.0636
     15 N          67.6003   93.4837   11.3517 N.2     1  UNL1       -0.2428
     16 C          66.6661   94.6259    9.1229 C.2     1  UNL1        0.3591
     17 O          67.4529   94.1223    7.9493 O.2     1  UNL1       -0.2432
     18 O          66.0230   95.9799    9.0692 O.3     1  UNL1       -0.4444
     19 C          65.9236   96.8546   11.5136 C.3     1  UNL1        0.0513
     20 C          65.2277   96.4794   10.2388 C.3     1  UNL1        0.2089
     21 C          62.8310   86.6816   16.2189 C.2     1  UNL1        0.2656
     22 O          61.7428   86.4207   17.2178 O.2     1  UNL1       -0.2684
     23 N          63.4091   85.5471   15.4260 N.am    1  UNL1       -0.2956
     24 H          64.1233   85.7184   14.7705 H       1  UNL1        0.1501
     25 C          62.8992   84.1517   15.6320 C.3     1  UNL1        0.1166
     26 C          62.8992   83.1771   14.4917 C.ar    1  UNL1       -0.0026
     27 C          62.0107   81.9695   14.5372 C.ar    1  UNL1       -0.0026
     28 C          62.0107   80.9950   13.3969 C.ar    1  UNL1        0.0009
     29 C          62.8993   81.2281   12.2111 C.ar    1  UNL1        0.0140
     30 C          63.7878   82.4357   12.1656 C.ar    1  UNL1        0.0009
     31 C          63.7878   83.4102   13.3059 C.ar    1  UNL1       -0.0026
     32 C          62.8992   80.2534   11.0709 C.2     1  UNL1        0.0729
     33 O          62.6240   78.8011   11.3257 O.co2   1  UNL1       -0.5446
     34 O          63.1744   80.7311    9.6758 O.co2   1  UNL1       -0.5446
@<TRIPOS>UNITY_ATOM_ATTR
33 1
charge -1
@<TRIPOS>BOND
     1    19    20    1
     2    20    18    1
     3    18    16    1
     4    16    17    2
     5    16     7    1
     6     7     8    2
     7     8     9    1
     8     9    10    2
     9    10    11    1
    10    11     1    1
    11     1     2   ar
    12     2     3   ar
    13     3    21    1
    14    21    22    2
    15    21    23   am
    16    23    25    1
    17    25    26    1
    18    26    27   ar
    19    27    28   ar
    20    28    29   ar
    21    29    32    1
    22    32    33   ar
    23    32    34   ar
    24    29    30   ar
    25    30    31   ar
    26     3     4   ar
    27     4     5   ar
    28     5     6    1
    29    11    12    2
    30    12    13    1
    31    13    14    1
    32    14    15    2
    33    15     7    1
    34    14     9    1
    35     5     1   ar
    36    31    26   ar
    37    23    24    1
@<TRIPOS>MOLECULE
*****
 34 37 0 0 0
SMALL
GASTEIGER

@<TRIPOS>ATOM
      1 C          60.9571   87.7845    9.1968 C.ar    1  UNL1        0.0793
      2 C          60.6149   88.0553    7.7617 C.ar    1  UNL1        0.0442
      3 C          59.8850   89.3642    7.6982 C.ar    1  UNL1        0.1555
      4 N          59.7761   89.9024    9.0941 N.ar    1  UNL1       -0.1646
      5 N          60.4387   88.9261   10.0203 N.ar    1  UNL1       -0.2487
      6 C          60.5614   89.0667   11.5086 C.3     1  UNL1        0.1537
      7 C          63.3343   83.2262   12.9820 C.2     1  UNL1        0.1563
      8 C          62.4586   84.4409   13.0685 C.2     1  UNL1        0.0269
      9 C          62.3468   85.0307   11.6938 C.2     1  UNL1        0.0156
     10 C          61.6147   86.2320   11.1735 C.2     1  UNL1        0.0024
     11 C          61.6892   86.5831    9.7171 C.2     1  UNL1        0.0135
     12 C          62.4959   85.7329    8.7810 C.2     1  UNL1       -0.0183
     13 C          63.2280   84.5315    9.3013 C.3     1  UNL1        0.0718
     14 C          63.1534   84.1804   10.7576 C.2     1  UNL1        0.0636
     15 N          63.7637   83.0652   11.5538 N.2     1  UNL1       -0.2428
     16 C          63.7139   82.3299   14.1232 C.2     1  UNL1        0.3591
     17 O          64.2884   82.9164   15.3785 O.2     1  UNL1       -0.2432
     18 O          63.5191   80.8470   14.0091 O.3     1  UNL1       -0.4444
     19 C          60.9229   80.7589   14.0536 C.3     1  UNL1        0.0513
     20 C          62.2286   80.2989   13.4760 C.3     1  UNL1        0.2089
     21 C          59.3567   90.0198    6.4568 C.2     1  UNL1        0.2656
     22 O          57.9280   89.8129    6.0492 O.2     1  UNL1       -0.2684
     23 N          60.2571   90.8823    5.6229 N.am    1  UNL1       -0.2956
     24 H          61.1948   91.0181    5.8904 H       1  UNL1        0.1501
     25 C          59.7289   91.5379    4.3815 C.3     1  UNL1        0.1166
     26 C          60.6787   92.1425    3.3904 C.ar    1  UNL1       -0.0026
     27 C          62.1118   91.7006    3.3591 C.ar    1  UNL1       -0.0026
     28 C          63.0616   92.3052    2.3680 C.ar    1  UNL1        0.0009
     29 C          62.5783   93.3516    1.4081 C.ar    1  UNL1        0.0140
     30 C          61.1452   93.7935    1.4393 C.ar    1  UNL1        0.0009
     31 C          60.1954   93.1889    2.4305 C.ar    1  UNL1       -0.0026
     32 C          63.5282   93.9561    0.4170 C.2     1  UNL1        0.0729
     33 O          64.9570   93.5016    0.3742 O.co2   1  UNL1       -0.5446
     34 O          63.0493   95.0151   -0.5313 O.co2   1  UNL1       -0.5446
@<TRIPOS>UNITY_ATOM_ATTR
33 1
charge -1
@<TRIPOS>BOND
     1    19    20    1
     2    20    18    1
     3    18    16    1
     4    16    17    2
     5    16     7    1
     6     7     8    2
     7     8     9    1
     8     9    10    2
     9    10    11    1
    10    11     1    1
    11     1     2   ar
    12     2     3   ar
    13     3    21    1
    14    21    22    2
    15    21    23   am
    16    23    25    1
    17    25    26    1
    18    26    27   ar
    19    27    28   ar
    20    28    29   ar
    21    29    32    1
    22    32    33   ar
    23    32    34   ar
    24    29    30   ar
    25    30    31   ar
    26     3     4   ar
    27     4     5   ar
    28     5     6    1
    29    11    12    2
    30    12    13    1
    31    13    14    1
    32    14    15    2
    33    15     7    1
    34    14     9    1
    35     5     1   ar
    36    31    26   ar
    37    23    24    1
@<TRIPOS>MOLECULE
*****
 34 37 0 0 0
SMALL
GASTEIGER

@<TRIPOS>ATOM
      1 C          60.3094   88.5214    8.3380 C.ar    1  UNL1        0.0793
      2 C          60.1893   89.8753    7.7034 C.ar    1  UNL1        0.0442
      3 C          59.2777   89.7526    6.5185 C.ar    1  UNL1        0.1555
      4 N          58.8344   88.3229    6.4208 N.ar    1  UNL1       -0.1646
      5 N          59.4720   87.5620    7.5453 N.ar    1  UNL1       -0.2487
      6 C          59.3021   86.0986    7.8275 C.3     1  UNL1        0.1537
      7 C          63.3029   85.3982   13.0328 C.2     1  UNL1        0.1563
      8 C          62.4467   85.1116   11.8350 C.2     1  UNL1        0.0269
      9 C          62.1066   86.4198   11.1846 C.2     1  UNL1        0.0156
     10 C          61.2922   86.7553    9.9704 C.2     1  UNL1        0.0024
     11 C          61.1238   88.1859    9.5522 C.2     1  UNL1        0.0135
     12 C          61.7698   89.2810   10.3481 C.2     1  UNL1       -0.0183
     13 C          62.5842   88.9455   11.5622 C.3     1  UNL1        0.0718
     14 C          62.7526   87.5149   11.9804 C.2     1  UNL1        0.0636
     15 N          63.4919   86.8835   13.1227 N.2     1  UNL1       -0.2428
     16 C          63.8703   84.3786   13.9753 C.2     1  UNL1        0.3591
     17 O          65.2921   84.4950   14.4389 O.2     1  UNL1       -0.2432
     18 O          63.0160   83.2425   14.4542 O.3     1  UNL1       -0.4444
     19 C          61.9128   80.9300   14.0233 C.3     1  UNL1        0.0513
     20 C          62.8830   82.0015   13.6222 C.3     1  UNL1        0.2089
     21 C          58.8794   90.8644    5.5937 C.2     1  UNL1        0.2656
     22 O          57.4328   91.2302    5.4401 O.2     1  UNL1       -0.2684
     23 N          59.9276   91.6103    4.8225 N.am    1  UNL1       -0.2956
     24 H          60.8770   91.3702    4.9234 H       1  UNL1        0.1501
     25 C          59.5294   92.7221    3.8977 C.3     1  UNL1        0.1166
     26 C          60.2464   92.9057    2.5931 C.ar    1  UNL1       -0.0026
     27 C          61.7324   92.7145    2.5207 C.ar    1  UNL1       -0.0026
     28 C          62.4495   92.8982    1.2161 C.ar    1  UNL1        0.0009
     29 C          61.6806   93.2730   -0.0161 C.ar    1  UNL1        0.0140
     30 C          60.1946   93.4641    0.0563 C.ar    1  UNL1        0.0009
     31 C          59.4775   93.2805    1.3609 C.ar    1  UNL1       -0.0026
     32 C          62.3978   93.4566   -1.3207 C.2     1  UNL1        0.0729
     33 O          63.8911   93.5971   -1.3422 O.co2   1  UNL1       -0.5446
     34 O          61.6219   93.4997   -2.6037 O.co2   1  UNL1       -0.5446
@<TRIPOS>UNITY_ATOM_ATTR
33 1
charge -1
@<TRIPOS>BOND
     1    19    20    1
     2    20    18    1
     3    18    16    1
     4    16    17    2
     5    16     7    1
     6     7     8    2
     7     8     9    1
     8     9    10    2
     9    10    11    1
    10    11     1    1
    11     1     2   ar
    12     2     3   ar
    13     3    21    1
    14    21    22    2
    15    21    23   am
    16    23    25    1
    17    25    26    1
    18    26    27   ar
    19    27    28   ar
    20    28    29   ar
    21    29    32    1
    22    32    33   ar
    23    32    34   ar
    24    29    30   ar
    25    30    31   ar
    26     3     4   ar
    27     4     5   ar
    28     5     6    1
    29    11    12    2
    30    12    13    1
    31    13    14    1
    32    14    15    2
    33    15     7    1
    34    14     9    1
    35     5     1   ar
    36    31    26   ar
    37    23    24    1
@<TRIPOS>MOLECULE
*****
 34 37 0 0 0
SMALL
GASTEIGER

@<TRIPOS>ATOM
      1 C          60.5615   88.8671    8.6451 C.ar    1  UNL1        0.0793
      2 C          60.2832   90.1063    7.8470 C.ar    1  UNL1        0.0442
      3 C          59.3953   89.7283    6.6987 C.ar    1  UNL1        0.1555
      4 N          59.1248   88.2555    6.7870 N.ar    1  UNL1       -0.1646
      5 N          59.8456   87.7233    7.9900 N.ar    1  UNL1       -0.2487
      6 C          59.8497   86.2975    8.4560 C.3     1  UNL1        0.1537
      7 C          64.1871   90.3309   13.6918 C.2     1  UNL1        0.1563
      8 C          63.4730   91.0123   12.5624 C.2     1  UNL1        0.0269
      9 C          62.8003   89.9571   11.7354 C.2     1  UNL1        0.0156
     10 C          61.9546   90.0383   10.4992 C.2     1  UNL1        0.0024
     11 C          61.4073   88.7859    9.8814 C.2     1  UNL1        0.0135
     12 C          61.7057   87.4522   10.4996 C.2     1  UNL1       -0.0183
     13 C          62.5514   87.3710   11.7358 C.3     1  UNL1        0.0718
     14 C          63.0987   88.6234   12.3537 C.2     1  UNL1        0.0636
     15 N          63.9558   88.8544   13.5628 N.2     1  UNL1       -0.2428
     16 C          64.9914   91.0071   14.7623 C.2     1  UNL1        0.3591
     17 O          64.2984   91.6623   15.9200 O.2     1  UNL1       -0.2432
     18 O          66.4887   91.0280   14.6750 O.3     1  UNL1       -0.4444
     19 C          66.4908   93.4561   13.7505 C.3     1  UNL1        0.0513
     20 C          67.1818   92.1386   13.9428 C.3     1  UNL1        0.2089
     21 C          58.8701   90.6597    5.6466 C.2     1  UNL1        0.2656
     22 O          57.4024   90.6923    5.3389 O.2     1  UNL1       -0.2684
     23 N          59.8126   91.5584    4.9023 N.am    1  UNL1       -0.2956
     24 H          60.7759   91.5369    5.1043 H       1  UNL1        0.1501
     25 C          59.2875   92.4897    3.8503 C.3     1  UNL1        0.1166
     26 C          60.0935   92.7551    2.6134 C.ar    1  UNL1       -0.0026
     27 C          61.5839   92.5873    2.6392 C.ar    1  UNL1       -0.0026
     28 C          62.3899   92.8527    1.4023 C.ar    1  UNL1        0.0009
     29 C          61.7056   93.2859    0.1397 C.ar    1  UNL1        0.0140
     30 C          60.2152   93.4536    0.1140 C.ar    1  UNL1        0.0009
     31 C          59.4092   93.1882    1.3508 C.ar    1  UNL1       -0.0026
     32 C          62.5117   93.5512   -1.0971 C.2     1  UNL1        0.0729
     33 O          61.8715   93.4357   -2.4487 O.co2   1  UNL1       -0.5446
     34 O          63.9580   93.9320   -0.9824 O.co2   1  UNL1       -0.5446
@<TRIPOS>UNITY_ATOM_ATTR
33 1
charge -1
@<TRIPOS>BOND
     1    19    20    1
     2    20    18    1
     3    18    16    1
     4    16    17    2
     5    16     7    1
     6     7     8    2
     7     8     9    1
     8     9    10    2
     9    10    11    1
    10    11     1    1
    11     1     2   ar
    12     2     3   ar
    13     3    21    1
    14    21    22    2
    15    21    23   am
    16    23    25    1
    17    25    26    1
    18    26    27   ar
    19    27    28   ar
    20    28    29   ar
    21    29    32    1
    22    32    33   ar
    23    32    34   ar
    24    29    30   ar
    25    30    31   ar
    26     3     4   ar
    27     4     5   ar
    28     5     6    1
    29    11    12    2
    30    12    13    1
    31    13    14    1
    32    14    15    2
    33    15     7    1
    34    14     9    1
    35     5     1   ar
    36    31    26   ar
    37    23    24    1
@<TRIPOS>MOLECULE
*****
 34 37 0 0 0
SMALL
GASTEIGER

@<TRIPOS>ATOM
      1 C          63.8869   87.3294   15.5417 C.ar    1  UNL1        0.0793
      2 C          64.4499   88.5619   14.8984 C.ar    1  UNL1        0.0442
      3 C          64.0847   89.7390   15.7533 C.ar    1  UNL1        0.1555
      4 N          63.2960   89.2340   16.9251 N.ar    1  UNL1       -0.1646
      5 N          63.1738   87.7447   16.7942 N.ar    1  UNL1       -0.2487
      6 C          62.4631   86.8312   17.7484 C.3     1  UNL1        0.1537
      7 C          62.6331   81.3670   13.6349 C.2     1  UNL1        0.1563
      8 C          61.9158   82.5668   14.1791 C.2     1  UNL1        0.0269
      9 C          62.9276   83.6526   14.3967 C.2     1  UNL1        0.0156
     10 C          62.7998   85.0544   14.9149 C.2     1  UNL1        0.0024
     11 C          64.0147   85.9275   15.0234 C.2     1  UNL1        0.0135
     12 C          65.3573   85.3988   14.6137 C.2     1  UNL1       -0.0183
     13 C          65.4851   83.9970   14.0955 C.3     1  UNL1        0.0718
     14 C          64.2702   83.1239   13.9870 C.2     1  UNL1        0.0636
     15 N          64.0882   81.7114   13.5162 N.2     1  UNL1       -0.2428
     16 C          62.0054   80.0536   13.2731 C.2     1  UNL1        0.3591
     17 O          60.8287   79.5448   14.0518 O.2     1  UNL1       -0.2432
     18 O          62.5545   79.2490   12.1325 O.3     1  UNL1       -0.4444
     19 C          62.8194   79.1102    9.5516 C.3     1  UNL1        0.0513
     20 C          62.8469   79.9120   10.8191 C.3     1  UNL1        0.2089
     21 C          64.4450   91.1700   15.4839 C.2     1  UNL1        0.2656
     22 O          63.8596   92.2626   16.3286 O.2     1  UNL1       -0.2684
     23 N          65.3906   91.5084   14.3698 N.am    1  UNL1       -0.2956
     24 H          65.7748   90.7913   13.8154 H       1  UNL1        0.1501
     25 C          65.7509   92.9392   14.1003 C.3     1  UNL1        0.1166
     26 C          66.2192   93.3506   12.7360 C.ar    1  UNL1       -0.0026
     27 C          66.7668   92.3237   11.7897 C.ar    1  UNL1       -0.0026
     28 C          67.2352   92.7351   10.4254 C.ar    1  UNL1        0.0009
     29 C          67.1560   94.1735   10.0074 C.ar    1  UNL1        0.0140
     30 C          66.6084   95.2005   10.9536 C.ar    1  UNL1        0.0009
     31 C          66.1400   94.7891   12.3179 C.ar    1  UNL1       -0.0026
     32 C          67.6244   94.5848    8.6430 C.2     1  UNL1        0.0729
     33 O          68.1912   93.5611    7.7045 O.co2   1  UNL1       -0.5446
     34 O          67.5261   96.0197    8.2172 O.co2   1  UNL1       -0.5446
@<TRIPOS>UNITY_ATOM_ATTR
33 1
charge -1
@<TRIPOS>BOND
     1    19    20    1
     2    20    18    1
     3    18    16    1
     4    16    17    2
     5    16     7    1
     6     7     8    2
     7     8     9    1
     8     9    10    2
     9    10    11    1
    10    11     1    1
    11     1     2   ar
    12     2     3   ar
    13     3    21    1
    14    21    22    2
    15    21    23   am
    16    23    25    1
    17    25    26    1
    18    26    27   ar
    19    27    28   ar
    20    28    29   ar
    21    29    32    1
    22    32    33   ar
    23    32    34   ar
    24    29    30   ar
    25    30    31   ar
    26     3     4   ar
    27     4     5   ar
    28     5     6    1
    29    11    12    2
    30    12    13    1
    31    13    14    1
    32    14    15    2
    33    15     7    1
    34    14     9    1
    35     5     1   ar
    36    31    26   ar
    37    23    24    1
@<TRIPOS>MOLECULE
*****
 34 37 0 0 0
SMALL
GASTEIGER

@<TRIPOS>ATOM
      1 C          64.3120   88.3428   14.9912 C.ar    1  UNL1        0.0793
      2 C          65.1437   89.4956   14.5125 C.ar    1  UNL1        0.0442
      3 C          64.6471   90.7384   15.1898 C.ar    1  UNL1        0.1555
      4 N          63.5083   90.3537   16.0872 N.ar    1  UNL1       -0.1646
      5 N          63.3012   88.8731   15.9645 N.ar    1  UNL1       -0.2487
      6 C          62.2653   88.0648   16.6879 C.3     1  UNL1        0.1537
      7 C          63.5134   82.6692   12.1755 C.2     1  UNL1        0.1563
      8 C          62.8939   84.0352   12.1881 C.2     1  UNL1        0.0269
      9 C          63.6697   84.8871   13.1485 C.2     1  UNL1        0.0156
     10 C          63.5175   86.3189   13.5691 C.2     1  UNL1        0.0024
     11 C          64.4642   86.9110   14.5706 C.2     1  UNL1        0.0135
     12 C          65.5631   86.0715   15.1515 C.2     1  UNL1       -0.0183
     13 C          65.7154   84.6398   14.7309 C.3     1  UNL1        0.0718
     14 C          64.7687   84.0476   13.7294 C.2     1  UNL1        0.0636
     15 N          64.6720   82.6768   13.1280 N.2     1  UNL1       -0.2428
     16 C          63.0547   81.5006   11.3544 C.2     1  UNL1        0.3591
     17 O          63.3325   81.4642    9.8808 O.2     1  UNL1       -0.2432
     18 O          62.3181   80.3685   12.0069 O.3     1  UNL1       -0.4444
     19 C          61.1334   81.0821   14.2063 C.3     1  UNL1        0.0513
     20 C          62.2078   80.3080   13.5016 C.3     1  UNL1        0.2089
     21 C          65.1932   92.1229   15.0027 C.2     1  UNL1        0.2656
     22 O          65.0984   93.1234   16.1162 O.2     1  UNL1       -0.2684
     23 N          65.8343   92.5068   13.7020 N.am    1  UNL1       -0.2956
     24 H          65.8966   91.8500   12.9712 H       1  UNL1        0.1501
     25 C          66.3805   93.8911   13.5148 C.3     1  UNL1        0.1166
     26 C          66.3838   94.5182   12.1522 C.ar    1  UNL1       -0.0026
     27 C          66.2037   96.0003   12.0083 C.ar    1  UNL1       -0.0026
     28 C          66.2071   96.6275   10.6457 C.ar    1  UNL1        0.0009
     29 C          66.3906   95.7724    9.4270 C.ar    1  UNL1        0.0140
     30 C          66.5707   94.2902    9.5709 C.ar    1  UNL1        0.0009
     31 C          66.5673   93.6631   10.9335 C.ar    1  UNL1       -0.0026
     32 C          66.3939   96.3996    8.0644 C.2     1  UNL1        0.0729
     33 O          65.0967   96.7378    7.3913 O.co2   1  UNL1       -0.5446
     34 O          67.6943   96.6886    7.3749 O.co2   1  UNL1       -0.5446
@<TRIPOS>UNITY_ATOM_ATTR
33 1
charge -1
@<TRIPOS>BOND
     1    19    20    1
     2    20    18    1
     3    18    16    1
     4    16    17    2
     5    16     7    1
     6     7     8    2
     7     8     9    1
     8     9    10    2
     9    10    11    1
    10    11     1    1
    11     1     2   ar
    12     2     3   ar
    13     3    21    1
    14    21    22    2
    15    21    23   am
    16    23    25    1
    17    25    26    1
    18    26    27   ar
    19    27    28   ar
    20    28    29   ar
    21    29    32    1
    22    32    33   ar
    23    32    34   ar
    24    29    30   ar
    25    30    31   ar
    26     3     4   ar
    27     4     5   ar
    28     5     6    1
    29    11    12    2
    30    12    13    1
    31    13    14    1
    32    14    15    2
    33    15     7    1
    34    14     9    1
    35     5     1   ar
    36    31    26   ar
    37    23    24    1
@<TRIPOS>MOLECULE
*****
 34 37 0 0 0
SMALL
GASTEIGER

@<TRIPOS>ATOM
      1 C          61.6542   87.7570   10.6748 C.ar    1  UNL1        0.0793
      2 C          60.9107   87.5831    9.3837 C.ar    1  UNL1        0.0442
      3 C          60.4967   88.9416    8.9007 C.ar    1  UNL1        0.1555
      4 N          60.9843   89.9550    9.8933 N.ar    1  UNL1       -0.1646
      5 N          61.6997   89.2228   10.9897 N.ar    1  UNL1       -0.2487
      6 C          62.3470   89.8470   12.1903 C.3     1  UNL1        0.1537
      7 C          63.2062   82.0456   13.0683 C.2     1  UNL1        0.1563
      8 C          62.3687   82.6355   11.9726 C.2     1  UNL1        0.0269
      9 C          62.5105   84.1276   12.0329 C.2     1  UNL1        0.0156
     10 C          61.9167   85.2266   11.2025 C.2     1  UNL1        0.0024
     11 C          62.2480   86.6579   11.5052 C.2     1  UNL1        0.0135
     12 C          63.1732   86.9902   12.6382 C.2     1  UNL1       -0.0183
     13 C          63.7670   85.8912   13.4686 C.3     1  UNL1        0.0718
     14 C          63.4356   84.4599   13.1659 C.2     1  UNL1        0.0636
     15 N          63.8656   83.1732   13.8058 N.2     1  UNL1       -0.2428
     16 C          63.3578   80.5848   13.3730 C.2     1  UNL1        0.3591
     17 O          64.1528   80.1462   14.5670 O.2     1  UNL1       -0.2432
     18 O          62.7143   79.5625   12.4838 O.3     1  UNL1       -0.4444
     19 C          62.7762   78.4761   10.1245 C.3     1  UNL1        0.0513
     20 C          62.8097   79.6987   10.9930 C.3     1  UNL1        0.2089
     21 C          59.7296   89.2351    7.6455 C.2     1  UNL1        0.2656
     22 O          58.6020   88.3382    7.2286 O.2     1  UNL1       -0.2684
     23 N          60.0903   90.4255    6.8072 N.am    1  UNL1       -0.2956
     24 H          60.8305   91.0142    7.0808 H       1  UNL1        0.1501
     25 C          59.3234   90.7191    5.5520 C.3     1  UNL1        0.1166
     26 C          59.9780   91.4715    4.4316 C.ar    1  UNL1       -0.0026
     27 C          61.4483   91.3130    4.1802 C.ar    1  UNL1       -0.0026
     28 C          62.1029   92.0654    3.0598 C.ar    1  UNL1        0.0009
     29 C          61.2873   92.9763    2.1909 C.ar    1  UNL1        0.0140
     30 C          59.8171   93.1349    2.4423 C.ar    1  UNL1        0.0009
     31 C          59.1625   92.3824    3.5627 C.ar    1  UNL1       -0.0026
     32 C          61.9421   93.7287    1.0705 C.2     1  UNL1        0.0729
     33 O          61.4099   93.6066   -0.3266 O.co2   1  UNL1       -0.5446
     34 O          63.1291   94.6031    1.3471 O.co2   1  UNL1       -0.5446
@<TRIPOS>UNITY_ATOM_ATTR
33 1
charge -1
@<TRIPOS>BOND
     1    19    20    1
     2    20    18    1
     3    18    16    1
     4    16    17    2
     5    16     7    1
     6     7     8    2
     7     8     9    1
     8     9    10    2
     9    10    11    1
    10    11     1    1
    11     1     2   ar
    12     2     3   ar
    13     3    21    1
    14    21    22    2
    15    21    23   am
    16    23    25    1
    17    25    26    1
    18    26    27   ar
    19    27    28   ar
    20    28    29   ar
    21    29    32    1
    22    32    33   ar
    23    32    34   ar
    24    29    30   ar
    25    30    31   ar
    26     3     4   ar
    27     4     5   ar
    28     5     6    1
    29    11    12    2
    30    12    13    1
    31    13    14    1
    32    14    15    2
    33    15     7    1
    34    14     9    1
    35     5     1   ar
    36    31    26   ar
    37    23    24    1
